<?xml version="1.0" encoding="UTF-8"?>

<!-- generated on 2025-10-08 13:20:32 by Eclipse SUMO netedit Version 1.23.1
<neteditConfiguration xmlns:xsi="http://www.w3.org/2001/XMLSchema-instance" xsi:noNamespaceSchemaLocation="http://sumo.dlr.de/xsd/neteditConfiguration.xsd">

    <input>
        <sumocfg-file value="C:\Users\admin\Sumo\final envs\gid.sumocfg"/>
        <route-files value="C:\Users\admin\Sumo\final envs\grid.rou.xml"/>
        <sumo-net-file value="C:\Users\admin\Sumo\final envs\grid.net.xml"/>
    </input>

    <output>
        <output-file value="C:\Users\admin\Sumo\final envs\grid.net.xml"/>
    </output>

    <processing>
        <geometry.min-radius.fix.railways value="false"/>
        <geometry.avoid-overlap value="false"/>
        <geometry.max-grade.fix value="false"/>
        <offset.disable-normalization value="true"/>
        <lefthand value="0"/>
    </processing>

    <junctions>
        <no-internal-links value="false"/>
        <no-turnarounds value="true"/>
        <junctions.corner-detail value="5"/>
        <junctions.limit-turn-speed value="5.50"/>
        <rectangular-lane-cut value="0"/>
    </junctions>

    <pedestrian>
        <walkingareas value="0"/>
    </pedestrian>

</neteditConfiguration>
-->

<net version="1.20" junctionCornerDetail="5" limitTurnSpeed="5.50" avoidOverlap="0" xmlns:xsi="http://www.w3.org/2001/XMLSchema-instance" xsi:noNamespaceSchemaLocation="http://sumo.dlr.de/xsd/net_file.xsd">

    <location netOffset="0.00,0.00" convBoundary="-300.00,-400.00,300.00,200.00" origBoundary="-10000000000.00,-10000000000.00,10000000000.00,10000000000.00" projParameter="!"/>

    <edge id=":I1_0" function="internal">
        <lane id=":I1_0_0" index="0" disallow="pedestrian" speed="6.51" length="4.75" shape="-108.00,13.60 -108.35,11.15 -109.40,9.40 -109.60,9.28"/>
    </edge>
    <edge id=":I1_1" function="internal">
        <lane id=":I1_1_0" index="0" disallow="pedestrian" speed="13.89" length="27.20" shape="-108.00,13.60 -108.00,-13.60"/>
        <lane id=":I1_1_1" index="1" disallow="pedestrian" speed="13.89" length="27.20" shape="-104.80,13.60 -104.80,-13.60"/>
        <lane id=":I1_1_2" index="2" disallow="pedestrian" speed="13.89" length="27.20" shape="-101.60,13.60 -101.60,-13.60"/>
    </edge>
    <edge id=":I1_4" function="internal">
        <lane id=":I1_4_0" index="0" disallow="pedestrian" speed="10.36" length="5.01" shape="-101.60,13.60 -100.89,8.64"/>
    </edge>
    <edge id=":I1_20" function="internal">
        <lane id=":I1_20_0" index="0" disallow="pedestrian" speed="6.51" length="4.28" shape="-109.60,9.28 -111.15,8.35 -113.60,8.00"/>
    </edge>
    <edge id=":I1_21" function="internal">
        <lane id=":I1_21_0" index="0" disallow="pedestrian" speed="10.36" length="19.50" shape="-100.89,8.64 -100.65,6.95 -97.80,2.20 -93.05,-0.65 -86.40,-1.60"/>
    </edge>
    <edge id=":I1_5" function="internal">
        <lane id=":I1_5_0" index="0" disallow="pedestrian" speed="6.51" length="4.75" shape="-86.40,8.00 -88.85,8.35 -90.60,9.40 -90.72,9.60"/>
    </edge>
    <edge id=":I1_6" function="internal">
        <lane id=":I1_6_0" index="0" disallow="pedestrian" speed="13.89" length="27.20" shape="-86.40,8.00 -113.60,8.00"/>
        <lane id=":I1_6_1" index="1" disallow="pedestrian" speed="13.89" length="27.20" shape="-86.40,4.80 -113.60,4.80"/>
        <lane id=":I1_6_2" index="2" disallow="pedestrian" speed="13.89" length="27.20" shape="-86.40,1.60 -113.60,1.60"/>
    </edge>
    <edge id=":I1_9" function="internal">
        <lane id=":I1_9_0" index="0" disallow="pedestrian" speed="10.36" length="5.01" shape="-86.40,1.60 -91.36,0.89"/>
    </edge>
    <edge id=":I1_22" function="internal">
        <lane id=":I1_22_0" index="0" disallow="pedestrian" speed="6.51" length="4.28" shape="-90.72,9.60 -91.65,11.15 -92.00,13.60"/>
    </edge>
    <edge id=":I1_23" function="internal">
        <lane id=":I1_23_0" index="0" disallow="pedestrian" speed="10.36" length="19.50" shape="-91.36,0.89 -93.05,0.65 -97.80,-2.20 -100.65,-6.95 -101.60,-13.60"/>
    </edge>
    <edge id=":I1_10" function="internal">
        <lane id=":I1_10_0" index="0" disallow="pedestrian" speed="6.51" length="4.75" shape="-92.00,-13.60 -91.65,-11.15 -90.60,-9.40 -90.40,-9.28"/>
    </edge>
    <edge id=":I1_11" function="internal">
        <lane id=":I1_11_0" index="0" disallow="pedestrian" speed="13.89" length="27.20" shape="-92.00,-13.60 -92.00,13.60"/>
        <lane id=":I1_11_1" index="1" disallow="pedestrian" speed="13.89" length="27.20" shape="-95.20,-13.60 -95.20,13.60"/>
        <lane id=":I1_11_2" index="2" disallow="pedestrian" speed="13.89" length="27.20" shape="-98.40,-13.60 -98.40,13.60"/>
    </edge>
    <edge id=":I1_14" function="internal">
        <lane id=":I1_14_0" index="0" disallow="pedestrian" speed="10.36" length="5.01" shape="-98.40,-13.60 -99.11,-8.64"/>
    </edge>
    <edge id=":I1_24" function="internal">
        <lane id=":I1_24_0" index="0" disallow="pedestrian" speed="6.51" length="4.28" shape="-90.40,-9.28 -88.85,-8.35 -86.40,-8.00"/>
    </edge>
    <edge id=":I1_25" function="internal">
        <lane id=":I1_25_0" index="0" disallow="pedestrian" speed="10.36" length="19.50" shape="-99.11,-8.64 -99.35,-6.95 -102.20,-2.20 -106.95,0.65 -113.60,1.60"/>
    </edge>
    <edge id=":I1_15" function="internal">
        <lane id=":I1_15_0" index="0" disallow="pedestrian" speed="6.51" length="4.75" shape="-113.60,-8.00 -111.15,-8.35 -109.40,-9.40 -109.28,-9.60"/>
    </edge>
    <edge id=":I1_16" function="internal">
        <lane id=":I1_16_0" index="0" disallow="pedestrian" speed="13.89" length="27.20" shape="-113.60,-8.00 -86.40,-8.00"/>
        <lane id=":I1_16_1" index="1" disallow="pedestrian" speed="13.89" length="27.20" shape="-113.60,-4.80 -86.40,-4.80"/>
        <lane id=":I1_16_2" index="2" disallow="pedestrian" speed="13.89" length="27.20" shape="-113.60,-1.60 -86.40,-1.60"/>
    </edge>
    <edge id=":I1_19" function="internal">
        <lane id=":I1_19_0" index="0" disallow="pedestrian" speed="10.36" length="5.01" shape="-113.60,-1.60 -108.64,-0.89"/>
    </edge>
    <edge id=":I1_26" function="internal">
        <lane id=":I1_26_0" index="0" disallow="pedestrian" speed="6.51" length="4.28" shape="-109.28,-9.60 -108.35,-11.15 -108.00,-13.60"/>
    </edge>
    <edge id=":I1_27" function="internal">
        <lane id=":I1_27_0" index="0" disallow="pedestrian" speed="10.36" length="19.50" shape="-108.64,-0.89 -106.95,-0.65 -102.20,2.20 -99.35,6.95 -98.40,13.60"/>
    </edge>
    <edge id=":I1_c0" function="crossing" crossingEdges="E17 -E17">
        <lane id=":I1_c0_0" index="0" allow="pedestrian" speed="2.78" length="19.20" width="4.00" shape="-90.40,11.60 -109.60,11.60" outlineShape="-90.30,13.60 -109.70,13.60 -113.60,9.60 -113.60,11.60 -111.60,13.60 -109.60,13.60 -113.60,9.60 -86.40,9.60 -87.62,9.71 -88.62,10.04 -89.40,10.60 -89.96,11.38 -90.29,12.38"/>
    </edge>
    <edge id=":I1_c1" function="crossing" crossingEdges="E18 -E18">
        <lane id=":I1_c1_0" index="0" allow="pedestrian" speed="2.78" length="19.20" width="4.00" shape="-88.40,-9.60 -88.40,9.60" outlineShape="-86.40,-9.70 -86.40,9.60 -87.62,9.71 -88.62,10.04 -89.40,10.60 -89.96,11.38 -90.07,11.71 -90.40,9.60 -90.40,-9.60 -90.07,-11.71 -89.96,-11.38 -89.40,-10.60 -88.62,-10.04 -87.62,-9.71"/>
    </edge>
    <edge id=":I1_c2" function="crossing" crossingEdges="E16 -E16">
        <lane id=":I1_c2_0" index="0" allow="pedestrian" speed="2.78" length="19.20" width="4.00" shape="-109.60,-11.60 -90.40,-11.60" outlineShape="-109.70,-13.60 -90.30,-13.60 -86.40,-9.60 -86.40,-11.60 -88.40,-13.60 -90.40,-13.60 -86.40,-9.60 -113.60,-9.60 -112.38,-9.71 -111.38,-10.04 -110.60,-10.60 -110.04,-11.38 -109.71,-12.38"/>
    </edge>
    <edge id=":I1_c3" function="crossing" crossingEdges="E15 -E15">
        <lane id=":I1_c3_0" index="0" allow="pedestrian" speed="2.78" length="19.20" width="4.00" shape="-111.60,9.60 -111.60,-9.60" outlineShape="-113.60,9.70 -113.60,-9.60 -112.38,-9.71 -111.38,-10.04 -110.60,-10.60 -110.04,-11.38 -109.93,-11.71 -109.60,-9.60 -109.60,9.60 -109.93,11.71 -110.04,11.38 -110.60,10.60 -111.38,10.04 -112.38,9.71"/>
    </edge>
    <edge id=":I1_w0" function="walkingarea">
        <lane id=":I1_w0_0" index="0" allow="pedestrian" speed="2.78" length="3.30" width="4.00" shape="-113.60,9.60 -113.60,11.60 -111.60,13.60 -109.60,13.60 -109.71,12.38 -110.04,11.38 -110.60,10.60 -111.38,10.04 -112.38,9.71"/>
    </edge>
    <edge id=":I1_w1" function="walkingarea">
        <lane id=":I1_w1_0" index="0" allow="pedestrian" speed="2.78" length="3.30" width="4.00" shape="-90.40,13.60 -88.40,13.60 -86.40,11.60 -86.40,9.60 -87.62,9.71 -88.62,10.04 -89.40,10.60 -89.96,11.38 -90.29,12.38"/>
    </edge>
    <edge id=":I1_w2" function="walkingarea">
        <lane id=":I1_w2_0" index="0" allow="pedestrian" speed="2.78" length="3.30" width="4.00" shape="-86.40,-9.60 -86.40,-11.60 -88.40,-13.60 -90.40,-13.60 -90.29,-12.38 -89.96,-11.38 -89.40,-10.60 -88.62,-10.04 -87.62,-9.71"/>
    </edge>
    <edge id=":I1_w3" function="walkingarea">
        <lane id=":I1_w3_0" index="0" allow="pedestrian" speed="2.78" length="3.30" width="4.00" shape="-109.60,-13.60 -111.60,-13.60 -113.60,-11.60 -113.60,-9.60 -112.38,-9.71 -111.38,-10.04 -110.60,-10.60 -110.04,-11.38 -109.71,-12.38"/>
    </edge>
    <edge id=":I2_0" function="internal">
        <lane id=":I2_0_0" index="0" disallow="pedestrian" speed="6.51" length="4.75" shape="92.00,13.60 91.65,11.15 90.60,9.40 90.40,9.28"/>
    </edge>
    <edge id=":I2_1" function="internal">
        <lane id=":I2_1_0" index="0" disallow="pedestrian" speed="13.89" length="27.20" shape="92.00,13.60 92.00,-13.60"/>
        <lane id=":I2_1_1" index="1" disallow="pedestrian" speed="13.89" length="27.20" shape="95.20,13.60 95.20,-13.60"/>
        <lane id=":I2_1_2" index="2" disallow="pedestrian" speed="13.89" length="27.20" shape="98.40,13.60 98.40,-13.60"/>
    </edge>
    <edge id=":I2_4" function="internal">
        <lane id=":I2_4_0" index="0" disallow="pedestrian" speed="10.36" length="5.01" shape="98.40,13.60 99.11,8.64"/>
    </edge>
    <edge id=":I2_20" function="internal">
        <lane id=":I2_20_0" index="0" disallow="pedestrian" speed="6.51" length="4.28" shape="90.40,9.28 88.85,8.35 86.40,8.00"/>
    </edge>
    <edge id=":I2_21" function="internal">
        <lane id=":I2_21_0" index="0" disallow="pedestrian" speed="10.36" length="19.50" shape="99.11,8.64 99.35,6.95 102.20,2.20 106.95,-0.65 113.60,-1.60"/>
    </edge>
    <edge id=":I2_5" function="internal">
        <lane id=":I2_5_0" index="0" disallow="pedestrian" speed="6.51" length="4.75" shape="113.60,8.00 111.15,8.35 109.40,9.40 109.28,9.60"/>
    </edge>
    <edge id=":I2_6" function="internal">
        <lane id=":I2_6_0" index="0" disallow="pedestrian" speed="13.89" length="27.20" shape="113.60,8.00 86.40,8.00"/>
        <lane id=":I2_6_1" index="1" disallow="pedestrian" speed="13.89" length="27.20" shape="113.60,4.80 86.40,4.80"/>
        <lane id=":I2_6_2" index="2" disallow="pedestrian" speed="13.89" length="27.20" shape="113.60,1.60 86.40,1.60"/>
    </edge>
    <edge id=":I2_9" function="internal">
        <lane id=":I2_9_0" index="0" disallow="pedestrian" speed="10.36" length="5.01" shape="113.60,1.60 108.64,0.89"/>
    </edge>
    <edge id=":I2_22" function="internal">
        <lane id=":I2_22_0" index="0" disallow="pedestrian" speed="6.51" length="4.28" shape="109.28,9.60 108.35,11.15 108.00,13.60"/>
    </edge>
    <edge id=":I2_23" function="internal">
        <lane id=":I2_23_0" index="0" disallow="pedestrian" speed="10.36" length="19.50" shape="108.64,0.89 106.95,0.65 102.20,-2.20 99.35,-6.95 98.40,-13.60"/>
    </edge>
    <edge id=":I2_10" function="internal">
        <lane id=":I2_10_0" index="0" disallow="pedestrian" speed="6.51" length="4.75" shape="108.00,-13.60 108.35,-11.15 109.40,-9.40 109.60,-9.28"/>
    </edge>
    <edge id=":I2_11" function="internal">
        <lane id=":I2_11_0" index="0" disallow="pedestrian" speed="13.89" length="27.20" shape="108.00,-13.60 108.00,13.60"/>
        <lane id=":I2_11_1" index="1" disallow="pedestrian" speed="13.89" length="27.20" shape="104.80,-13.60 104.80,13.60"/>
        <lane id=":I2_11_2" index="2" disallow="pedestrian" speed="13.89" length="27.20" shape="101.60,-13.60 101.60,13.60"/>
    </edge>
    <edge id=":I2_14" function="internal">
        <lane id=":I2_14_0" index="0" disallow="pedestrian" speed="10.36" length="5.01" shape="101.60,-13.60 100.89,-8.64"/>
    </edge>
    <edge id=":I2_24" function="internal">
        <lane id=":I2_24_0" index="0" disallow="pedestrian" speed="6.51" length="4.28" shape="109.60,-9.28 111.15,-8.35 113.60,-8.00"/>
    </edge>
    <edge id=":I2_25" function="internal">
        <lane id=":I2_25_0" index="0" disallow="pedestrian" speed="10.36" length="19.50" shape="100.89,-8.64 100.65,-6.95 97.80,-2.20 93.05,0.65 86.40,1.60"/>
    </edge>
    <edge id=":I2_15" function="internal">
        <lane id=":I2_15_0" index="0" disallow="pedestrian" speed="6.51" length="4.75" shape="86.40,-8.00 88.85,-8.35 90.60,-9.40 90.72,-9.60"/>
    </edge>
    <edge id=":I2_16" function="internal">
        <lane id=":I2_16_0" index="0" disallow="pedestrian" speed="13.89" length="27.20" shape="86.40,-8.00 113.60,-8.00"/>
        <lane id=":I2_16_1" index="1" disallow="pedestrian" speed="13.89" length="27.20" shape="86.40,-4.80 113.60,-4.80"/>
        <lane id=":I2_16_2" index="2" disallow="pedestrian" speed="13.89" length="27.20" shape="86.40,-1.60 113.60,-1.60"/>
    </edge>
    <edge id=":I2_19" function="internal">
        <lane id=":I2_19_0" index="0" disallow="pedestrian" speed="10.36" length="5.01" shape="86.40,-1.60 91.36,-0.89"/>
    </edge>
    <edge id=":I2_26" function="internal">
        <lane id=":I2_26_0" index="0" disallow="pedestrian" speed="6.51" length="4.28" shape="90.72,-9.60 91.65,-11.15 92.00,-13.60"/>
    </edge>
    <edge id=":I2_27" function="internal">
        <lane id=":I2_27_0" index="0" disallow="pedestrian" speed="10.36" length="19.50" shape="91.36,-0.89 93.05,-0.65 97.80,2.20 100.65,6.95 101.60,13.60"/>
    </edge>
    <edge id=":I2_c0" function="crossing" crossingEdges="E19 -E19">
        <lane id=":I2_c0_0" index="0" allow="pedestrian" speed="2.78" length="19.20" width="4.00" shape="109.60,11.60 90.40,11.60" outlineShape="109.70,13.60 90.30,13.60 86.40,9.60 86.40,11.60 88.40,13.60 90.40,13.60 86.40,9.60 113.60,9.60 112.38,9.71 111.38,10.04 110.60,10.60 110.04,11.38 109.71,12.38"/>
    </edge>
    <edge id=":I2_c1" function="crossing" crossingEdges="E21 -E21">
        <lane id=":I2_c1_0" index="0" allow="pedestrian" speed="2.78" length="19.20" width="4.00" shape="111.60,-9.60 111.60,9.60" outlineShape="113.60,-9.70 113.60,9.60 112.38,9.71 111.38,10.04 110.60,10.60 110.04,11.38 109.93,11.71 109.60,9.60 109.60,-9.60 109.93,-11.71 110.04,-11.38 110.60,-10.60 111.38,-10.04 112.38,-9.71"/>
    </edge>
    <edge id=":I2_c2" function="crossing" crossingEdges="E20 -E20">
        <lane id=":I2_c2_0" index="0" allow="pedestrian" speed="2.78" length="19.20" width="4.00" shape="90.40,-11.60 109.60,-11.60" outlineShape="90.30,-13.60 109.70,-13.60 113.60,-9.60 113.60,-11.60 111.60,-13.60 109.60,-13.60 113.60,-9.60 86.40,-9.60 87.62,-9.71 88.62,-10.04 89.40,-10.60 89.96,-11.38 90.29,-12.38"/>
    </edge>
    <edge id=":I2_c3" function="crossing" crossingEdges="-E18 E18">
        <lane id=":I2_c3_0" index="0" allow="pedestrian" speed="2.78" length="19.20" width="4.00" shape="88.40,9.60 88.40,-9.60" outlineShape="86.40,9.70 86.40,-9.60 87.62,-9.71 88.62,-10.04 89.40,-10.60 89.96,-11.38 90.07,-11.71 90.40,-9.60 90.40,9.60 90.07,11.71 89.96,11.38 89.40,10.60 88.62,10.04 87.62,9.71"/>
    </edge>
    <edge id=":I2_w0" function="walkingarea">
        <lane id=":I2_w0_0" index="0" allow="pedestrian" speed="2.78" length="3.30" width="4.00" shape="86.40,9.60 86.40,11.60 88.40,13.60 90.40,13.60 90.29,12.38 89.96,11.38 89.40,10.60 88.62,10.04 87.62,9.71"/>
    </edge>
    <edge id=":I2_w1" function="walkingarea">
        <lane id=":I2_w1_0" index="0" allow="pedestrian" speed="2.78" length="3.30" width="4.00" shape="109.60,13.60 111.60,13.60 113.60,11.60 113.60,9.60 112.38,9.71 111.38,10.04 110.60,10.60 110.04,11.38 109.71,12.38"/>
    </edge>
    <edge id=":I2_w2" function="walkingarea">
        <lane id=":I2_w2_0" index="0" allow="pedestrian" speed="2.78" length="3.30" width="4.00" shape="113.60,-9.60 113.60,-11.60 111.60,-13.60 109.60,-13.60 109.71,-12.38 110.04,-11.38 110.60,-10.60 111.38,-10.04 112.38,-9.71"/>
    </edge>
    <edge id=":I2_w3" function="walkingarea">
        <lane id=":I2_w3_0" index="0" allow="pedestrian" speed="2.78" length="3.30" width="4.00" shape="90.40,-13.60 88.40,-13.60 86.40,-11.60 86.40,-9.60 87.62,-9.71 88.62,-10.04 89.40,-10.60 89.96,-11.38 90.29,-12.38"/>
    </edge>
    <edge id=":I3_0" function="internal">
        <lane id=":I3_0_0" index="0" disallow="pedestrian" speed="6.51" length="4.75" shape="-108.00,-186.40 -108.35,-188.85 -109.40,-190.60 -109.60,-190.72"/>
    </edge>
    <edge id=":I3_1" function="internal">
        <lane id=":I3_1_0" index="0" disallow="pedestrian" speed="13.89" length="27.20" shape="-108.00,-186.40 -108.00,-213.60"/>
        <lane id=":I3_1_1" index="1" disallow="pedestrian" speed="13.89" length="27.20" shape="-104.80,-186.40 -104.80,-213.60"/>
        <lane id=":I3_1_2" index="2" disallow="pedestrian" speed="13.89" length="27.20" shape="-101.60,-186.40 -101.60,-213.60"/>
    </edge>
    <edge id=":I3_4" function="internal">
        <lane id=":I3_4_0" index="0" disallow="pedestrian" speed="10.36" length="5.01" shape="-101.60,-186.40 -100.89,-191.36"/>
    </edge>
    <edge id=":I3_20" function="internal">
        <lane id=":I3_20_0" index="0" disallow="pedestrian" speed="6.51" length="4.28" shape="-109.60,-190.72 -111.15,-191.65 -113.60,-192.00"/>
    </edge>
    <edge id=":I3_21" function="internal">
        <lane id=":I3_21_0" index="0" disallow="pedestrian" speed="10.36" length="19.50" shape="-100.89,-191.36 -100.65,-193.05 -97.80,-197.80 -93.05,-200.65 -86.40,-201.60"/>
    </edge>
    <edge id=":I3_5" function="internal">
        <lane id=":I3_5_0" index="0" disallow="pedestrian" speed="6.51" length="4.75" shape="-86.40,-192.00 -88.85,-191.65 -90.60,-190.60 -90.72,-190.40"/>
    </edge>
    <edge id=":I3_6" function="internal">
        <lane id=":I3_6_0" index="0" disallow="pedestrian" speed="13.89" length="27.20" shape="-86.40,-192.00 -113.60,-192.00"/>
        <lane id=":I3_6_1" index="1" disallow="pedestrian" speed="13.89" length="27.20" shape="-86.40,-195.20 -113.60,-195.20"/>
        <lane id=":I3_6_2" index="2" disallow="pedestrian" speed="13.89" length="27.20" shape="-86.40,-198.40 -113.60,-198.40"/>
    </edge>
    <edge id=":I3_9" function="internal">
        <lane id=":I3_9_0" index="0" disallow="pedestrian" speed="10.36" length="5.01" shape="-86.40,-198.40 -91.36,-199.11"/>
    </edge>
    <edge id=":I3_22" function="internal">
        <lane id=":I3_22_0" index="0" disallow="pedestrian" speed="6.51" length="4.28" shape="-90.72,-190.40 -91.65,-188.85 -92.00,-186.40"/>
    </edge>
    <edge id=":I3_23" function="internal">
        <lane id=":I3_23_0" index="0" disallow="pedestrian" speed="10.36" length="19.50" shape="-91.36,-199.11 -93.05,-199.35 -97.80,-202.20 -100.65,-206.95 -101.60,-213.60"/>
    </edge>
    <edge id=":I3_10" function="internal">
        <lane id=":I3_10_0" index="0" disallow="pedestrian" speed="6.51" length="4.75" shape="-92.00,-213.60 -91.65,-211.15 -90.60,-209.40 -90.40,-209.28"/>
    </edge>
    <edge id=":I3_11" function="internal">
        <lane id=":I3_11_0" index="0" disallow="pedestrian" speed="13.89" length="27.20" shape="-92.00,-213.60 -92.00,-186.40"/>
        <lane id=":I3_11_1" index="1" disallow="pedestrian" speed="13.89" length="27.20" shape="-95.20,-213.60 -95.20,-186.40"/>
        <lane id=":I3_11_2" index="2" disallow="pedestrian" speed="13.89" length="27.20" shape="-98.40,-213.60 -98.40,-186.40"/>
    </edge>
    <edge id=":I3_14" function="internal">
        <lane id=":I3_14_0" index="0" disallow="pedestrian" speed="10.36" length="5.01" shape="-98.40,-213.60 -99.11,-208.64"/>
    </edge>
    <edge id=":I3_24" function="internal">
        <lane id=":I3_24_0" index="0" disallow="pedestrian" speed="6.51" length="4.28" shape="-90.40,-209.28 -88.85,-208.35 -86.40,-208.00"/>
    </edge>
    <edge id=":I3_25" function="internal">
        <lane id=":I3_25_0" index="0" disallow="pedestrian" speed="10.36" length="19.50" shape="-99.11,-208.64 -99.35,-206.95 -102.20,-202.20 -106.95,-199.35 -113.60,-198.40"/>
    </edge>
    <edge id=":I3_15" function="internal">
        <lane id=":I3_15_0" index="0" disallow="pedestrian" speed="6.51" length="4.75" shape="-113.60,-208.00 -111.15,-208.35 -109.40,-209.40 -109.28,-209.60"/>
    </edge>
    <edge id=":I3_16" function="internal">
        <lane id=":I3_16_0" index="0" disallow="pedestrian" speed="13.89" length="27.20" shape="-113.60,-208.00 -86.40,-208.00"/>
        <lane id=":I3_16_1" index="1" disallow="pedestrian" speed="13.89" length="27.20" shape="-113.60,-204.80 -86.40,-204.80"/>
        <lane id=":I3_16_2" index="2" disallow="pedestrian" speed="13.89" length="27.20" shape="-113.60,-201.60 -86.40,-201.60"/>
    </edge>
    <edge id=":I3_19" function="internal">
        <lane id=":I3_19_0" index="0" disallow="pedestrian" speed="10.36" length="5.01" shape="-113.60,-201.60 -108.64,-200.89"/>
    </edge>
    <edge id=":I3_26" function="internal">
        <lane id=":I3_26_0" index="0" disallow="pedestrian" speed="6.51" length="4.28" shape="-109.28,-209.60 -108.35,-211.15 -108.00,-213.60"/>
    </edge>
    <edge id=":I3_27" function="internal">
        <lane id=":I3_27_0" index="0" disallow="pedestrian" speed="10.36" length="19.50" shape="-108.64,-200.89 -106.95,-200.65 -102.20,-197.80 -99.35,-193.05 -98.40,-186.40"/>
    </edge>
    <edge id=":I3_c0" function="crossing" crossingEdges="-E16 E16">
        <lane id=":I3_c0_0" index="0" allow="pedestrian" speed="2.78" length="19.20" width="4.00" shape="-90.40,-188.40 -109.60,-188.40" outlineShape="-90.30,-186.40 -109.70,-186.40 -113.60,-190.40 -113.60,-188.40 -111.60,-186.40 -109.60,-186.40 -113.60,-190.40 -86.40,-190.40 -87.62,-190.29 -88.62,-189.96 -89.40,-189.40 -89.96,-188.62 -90.29,-187.62"/>
    </edge>
    <edge id=":I3_c1" function="crossing" crossingEdges="E24 -E24">
        <lane id=":I3_c1_0" index="0" allow="pedestrian" speed="2.78" length="19.20" width="4.00" shape="-88.40,-209.60 -88.40,-190.40" outlineShape="-86.40,-209.70 -86.40,-190.30 -90.40,-186.40 -88.40,-186.40 -86.40,-188.40 -86.40,-190.40 -90.40,-186.40 -90.40,-213.60 -90.29,-212.38 -89.96,-211.38 -89.40,-210.60 -88.62,-210.04 -87.62,-209.71"/>
    </edge>
    <edge id=":I3_c2" function="crossing" crossingEdges="E23 -E23">
        <lane id=":I3_c2_0" index="0" allow="pedestrian" speed="2.78" length="19.20" width="4.00" shape="-109.60,-211.60 -90.40,-211.60" outlineShape="-109.70,-213.60 -90.30,-213.60 -86.40,-209.60 -86.40,-211.60 -88.40,-213.60 -90.40,-213.60 -86.40,-209.60 -113.60,-209.60 -112.38,-209.71 -111.38,-210.04 -110.60,-210.60 -110.04,-211.38 -109.71,-212.38"/>
    </edge>
    <edge id=":I3_c3" function="crossing" crossingEdges="E22 -E22">
        <lane id=":I3_c3_0" index="0" allow="pedestrian" speed="2.78" length="19.20" width="4.00" shape="-111.60,-190.40 -111.60,-209.60" outlineShape="-113.60,-190.30 -113.60,-209.70 -109.60,-213.60 -111.60,-213.60 -113.60,-211.60 -113.60,-209.60 -109.60,-213.60 -109.60,-186.40 -109.71,-187.62 -110.04,-188.62 -110.60,-189.40 -111.38,-189.96 -112.38,-190.29"/>
    </edge>
    <edge id=":I3_w0" function="walkingarea">
        <lane id=":I3_w0_0" index="0" allow="pedestrian" speed="2.78" length="3.30" width="4.00" shape="-113.60,-190.40 -113.60,-188.40 -111.60,-186.40 -109.60,-186.40 -109.71,-187.62 -110.04,-188.62 -110.60,-189.40 -111.38,-189.96 -112.38,-190.29"/>
    </edge>
    <edge id=":I3_w1" function="walkingarea">
        <lane id=":I3_w1_0" index="0" allow="pedestrian" speed="2.78" length="3.30" width="4.00" shape="-90.40,-186.40 -88.40,-186.40 -86.40,-188.40 -86.40,-190.40 -87.62,-190.29 -88.62,-189.96 -89.40,-189.40 -89.96,-188.62 -90.29,-187.62"/>
    </edge>
    <edge id=":I3_w2" function="walkingarea">
        <lane id=":I3_w2_0" index="0" allow="pedestrian" speed="2.78" length="3.30" width="4.00" shape="-86.40,-209.60 -86.40,-211.60 -88.40,-213.60 -90.40,-213.60 -90.29,-212.38 -89.96,-211.38 -89.40,-210.60 -88.62,-210.04 -87.62,-209.71"/>
    </edge>
    <edge id=":I3_w3" function="walkingarea">
        <lane id=":I3_w3_0" index="0" allow="pedestrian" speed="2.78" length="3.30" width="4.00" shape="-109.60,-213.60 -111.60,-213.60 -113.60,-211.60 -113.60,-209.60 -112.38,-209.71 -111.38,-210.04 -110.60,-210.60 -110.04,-211.38 -109.71,-212.38"/>
    </edge>
    <edge id=":J19_0" function="internal">
        <lane id=":J19_0_0" index="0" disallow="pedestrian" speed="13.89" length="27.20" shape="-308.00,13.60 -308.00,-13.60"/>
        <lane id=":J19_0_1" index="1" disallow="pedestrian" speed="13.89" length="27.20" shape="-304.80,13.60 -304.80,-13.60"/>
        <lane id=":J19_0_2" index="2" disallow="pedestrian" speed="13.89" length="27.20" shape="-301.60,13.60 -301.60,-13.60"/>
    </edge>
    <edge id=":J19_3" function="internal">
        <lane id=":J19_3_0" index="0" disallow="pedestrian" speed="10.88" length="6.03" shape="-301.60,13.60 -300.89,7.62"/>
        <lane id=":J19_3_1" index="1" disallow="pedestrian" speed="10.36" length="5.01" shape="-301.60,13.60 -300.89,8.64"/>
    </edge>
    <edge id=":J19_12" function="internal">
        <lane id=":J19_12_0" index="0" disallow="pedestrian" speed="10.88" length="21.12" shape="-300.89,7.62 -300.65,5.55 -297.80,-0.20 -293.05,-3.65 -286.40,-4.80"/>
        <lane id=":J19_12_1" index="0" disallow="pedestrian" speed="10.36" length="19.50" shape="-300.89,8.64 -300.65,6.95 -297.80,2.20 -293.05,-0.65 -286.40,-1.60"/>
    </edge>
    <edge id=":J19_5" function="internal">
        <lane id=":J19_5_0" index="0" disallow="pedestrian" speed="6.51" length="9.03" shape="-286.40,8.00 -288.85,8.35 -290.60,9.40 -291.65,11.15 -292.00,13.60"/>
    </edge>
    <edge id=":J19_6" function="internal">
        <lane id=":J19_6_0" index="0" disallow="pedestrian" speed="11.36" length="29.67" shape="-286.40,4.80 -294.45,3.65 -300.20,0.20 -303.65,-5.55 -304.80,-13.60"/>
        <lane id=":J19_6_1" index="1" disallow="pedestrian" speed="10.36" length="24.51" shape="-286.40,1.60 -293.05,0.65 -297.80,-2.20 -300.65,-6.95 -301.60,-13.60"/>
    </edge>
    <edge id=":J19_8" function="internal">
        <lane id=":J19_8_0" index="0" disallow="pedestrian" speed="6.51" length="9.03" shape="-292.00,-13.60 -291.65,-11.15 -290.60,-9.40 -288.85,-8.35 -286.40,-8.00"/>
    </edge>
    <edge id=":J19_9" function="internal">
        <lane id=":J19_9_0" index="0" disallow="pedestrian" speed="13.89" length="27.20" shape="-292.00,-13.60 -292.00,13.60"/>
        <lane id=":J19_9_1" index="1" disallow="pedestrian" speed="13.89" length="27.20" shape="-295.20,-13.60 -295.20,13.60"/>
        <lane id=":J19_9_2" index="2" disallow="pedestrian" speed="13.89" length="27.20" shape="-298.40,-13.60 -298.40,13.60"/>
    </edge>
    <edge id=":J19_w0" function="walkingarea">
        <lane id=":J19_w0_0" index="0" allow="pedestrian" speed="2.78" length="27.20" width="2.00" shape="-309.60,-13.60 -311.60,-13.60 -311.60,13.60 -309.60,13.60"/>
    </edge>
    <edge id=":J19_w1" function="walkingarea">
        <lane id=":J19_w1_0" index="0" allow="pedestrian" speed="2.78" length="4.24" width="2.00" shape="-290.40,13.60 -288.40,13.60 -286.40,11.60 -286.40,9.60 -287.62,9.71 -288.62,10.04 -289.40,10.60 -289.96,11.38 -290.29,12.38"/>
    </edge>
    <edge id=":J19_w2" function="walkingarea">
        <lane id=":J19_w2_0" index="0" allow="pedestrian" speed="2.78" length="4.24" width="2.00" shape="-286.40,-9.60 -286.40,-11.60 -288.40,-13.60 -290.40,-13.60 -290.29,-12.38 -289.96,-11.38 -289.40,-10.60 -288.62,-10.04 -287.62,-9.71"/>
    </edge>
    <edge id=":J21_0" function="internal">
        <lane id=":J21_0_0" index="0" disallow="pedestrian" speed="13.89" length="27.20" shape="-86.40,208.00 -113.60,208.00"/>
        <lane id=":J21_0_1" index="1" disallow="pedestrian" speed="13.89" length="27.20" shape="-86.40,204.80 -113.60,204.80"/>
        <lane id=":J21_0_2" index="2" disallow="pedestrian" speed="13.89" length="27.20" shape="-86.40,201.60 -113.60,201.60"/>
    </edge>
    <edge id=":J21_3" function="internal">
        <lane id=":J21_3_0" index="0" disallow="pedestrian" speed="10.88" length="6.03" shape="-86.40,201.60 -92.38,200.89"/>
        <lane id=":J21_3_1" index="1" disallow="pedestrian" speed="10.36" length="5.01" shape="-86.40,201.60 -91.36,200.89"/>
    </edge>
    <edge id=":J21_12" function="internal">
        <lane id=":J21_12_0" index="0" disallow="pedestrian" speed="10.88" length="21.12" shape="-92.38,200.89 -94.45,200.65 -100.20,197.80 -103.65,193.05 -104.80,186.40"/>
        <lane id=":J21_12_1" index="0" disallow="pedestrian" speed="10.36" length="19.50" shape="-91.36,200.89 -93.05,200.65 -97.80,197.80 -100.65,193.05 -101.60,186.40"/>
    </edge>
    <edge id=":J21_5" function="internal">
        <lane id=":J21_5_0" index="0" disallow="pedestrian" speed="6.51" length="9.03" shape="-92.00,186.40 -91.65,188.85 -90.60,190.60 -88.85,191.65 -86.40,192.00"/>
    </edge>
    <edge id=":J21_6" function="internal">
        <lane id=":J21_6_0" index="0" disallow="pedestrian" speed="11.36" length="29.67" shape="-95.20,186.40 -96.35,194.45 -99.80,200.20 -105.55,203.65 -113.60,204.80"/>
        <lane id=":J21_6_1" index="1" disallow="pedestrian" speed="10.36" length="24.51" shape="-98.40,186.40 -99.35,193.05 -102.20,197.80 -106.95,200.65 -113.60,201.60"/>
    </edge>
    <edge id=":J21_8" function="internal">