<?xml version="1.0" encoding="UTF-8"?>

<!-- generated on 2025-09-02 20:50:16 by Eclipse SUMO netedit Version 1.24.0
<neteditConfiguration xmlns:xsi="http://www.w3.org/2001/XMLSchema-instance" xsi:noNamespaceSchemaLocation="http://sumo.dlr.de/xsd/neteditConfiguration.xsd">

    <input>
        <sumo-net-file value="C:\Ojas\X\TrafIQ Project\SUMO Testing\randommulti.net.xml"/>
    </input>

    <output>
        <output-file value="C:\Ojas\X\TrafIQ Project\SUMO Testing\randommulti.net.xml"/>
    </output>

    <processing>
        <offset.disable-normalization value="true"/>
    </processing>

    <junctions>
        <no-turnarounds value="true"/>
    </junctions>

    <netedit>
        <new-network value="false"/>
    </netedit>

</neteditConfiguration>
-->

<net version="1.20" junctionCornerDetail="5" limitTurnSpeed="5.50" xmlns:xsi="http://www.w3.org/2001/XMLSchema-instance" xsi:noNamespaceSchemaLocation="http://sumo.dlr.de/xsd/net_file.xsd">

    <location netOffset="0.00,0.00" convBoundary="-600.00,-300.00,900.00,300.00" origBoundary="10000000000.00,10000000000.00,-10000000000.00,-10000000000.00" projParameter="!"/>

    <edge id=":J0_0" function="internal">
        <lane id=":J0_0_0" index="0" speed="6.51" length="9.03" shape="-4.80,10.40 -5.15,7.95 -6.20,6.20 -7.95,5.15 -10.40,4.80"/>
    </edge>
    <edge id=":J0_1" function="internal">
        <lane id=":J0_1_0" index="0" speed="13.89" length="20.80" shape="-4.80,10.40 -4.80,-10.40"/>
        <lane id=":J0_1_1" index="1" speed="13.89" length="20.80" shape="-1.60,10.40 -1.60,-10.40"/>
    </edge>
    <edge id=":J0_3" function="internal">
        <lane id=":J0_3_0" index="0" speed="9.26" length="5.01" shape="-1.60,10.40 -0.89,5.44"/>
    </edge>
    <edge id=":J0_16" function="internal">
        <lane id=":J0_16_0" index="0" speed="9.26" length="14.34" shape="-0.89,5.44 -0.85,5.15 1.40,1.40 5.15,-0.85 10.40,-1.60"/>
    </edge>
    <edge id=":J0_4" function="internal">
        <lane id=":J0_4_0" index="0" speed="6.51" length="9.03" shape="10.40,4.80 7.95,5.15 6.20,6.20 5.15,7.95 4.80,10.40"/>
    </edge>
    <edge id=":J0_5" function="internal">
        <lane id=":J0_5_0" index="0" speed="13.89" length="20.80" shape="10.40,4.80 -10.40,4.80"/>
        <lane id=":J0_5_1" index="1" speed="13.89" length="20.80" shape="10.40,1.60 -10.40,1.60"/>
    </edge>
    <edge id=":J0_7" function="internal">
        <lane id=":J0_7_0" index="0" speed="9.26" length="19.35" shape="10.40,1.60 5.15,0.85 1.40,-1.40 -0.85,-5.15 -1.60,-10.40"/>
    </edge>
    <edge id=":J0_8" function="internal">
        <lane id=":J0_8_0" index="0" speed="6.51" length="9.03" shape="4.80,-10.40 5.15,-7.95 6.20,-6.20 7.95,-5.15 10.40,-4.80"/>
    </edge>
    <edge id=":J0_9" function="internal">
        <lane id=":J0_9_0" index="0" speed="13.89" length="20.80" shape="4.80,-10.40 4.80,10.40"/>
        <lane id=":J0_9_1" index="1" speed="13.89" length="20.80" shape="1.60,-10.40 1.60,10.40"/>
    </edge>
    <edge id=":J0_11" function="internal">
        <lane id=":J0_11_0" index="0" speed="9.26" length="5.01" shape="1.60,-10.40 0.89,-5.44"/>
    </edge>
    <edge id=":J0_17" function="internal">
        <lane id=":J0_17_0" index="0" speed="9.26" length="14.34" shape="0.89,-5.44 0.85,-5.15 -1.40,-1.40 -5.15,0.85 -10.40,1.60"/>
    </edge>
    <edge id=":J0_12" function="internal">
        <lane id=":J0_12_0" index="0" speed="6.51" length="9.03" shape="-10.40,-4.80 -7.95,-5.15 -6.20,-6.20 -5.15,-7.95 -4.80,-10.40"/>
    </edge>
    <edge id=":J0_13" function="internal">
        <lane id=":J0_13_0" index="0" speed="13.89" length="20.80" shape="-10.40,-4.80 10.40,-4.80"/>
        <lane id=":J0_13_1" index="1" speed="13.89" length="20.80" shape="-10.40,-1.60 10.40,-1.60"/>
    </edge>
    <edge id=":J0_15" function="internal">
        <lane id=":J0_15_0" index="0" speed="9.26" length="19.35" shape="-10.40,-1.60 -5.15,-0.85 -1.40,1.40 0.85,5.15 1.60,10.40"/>
    </edge>
    <edge id=":J1_0" function="internal">
        <lane id=":J1_0_0" index="0" speed="6.51" length="9.03" shape="-304.80,10.40 -305.15,7.95 -306.20,6.20 -307.95,5.15 -310.40,4.80"/>
    </edge>
    <edge id=":J1_1" function="internal">
        <lane id=":J1_1_0" index="0" speed="13.89" length="20.80" shape="-304.80,10.40 -304.80,-10.40"/>
        <lane id=":J1_1_1" index="1" speed="13.89" length="20.80" shape="-301.60,10.40 -301.60,-10.40"/>
    </edge>
    <edge id=":J1_3" function="internal">
        <lane id=":J1_3_0" index="0" speed="9.26" length="5.01" shape="-301.60,10.40 -300.89,5.44"/>
    </edge>
    <edge id=":J1_16" function="internal">
        <lane id=":J1_16_0" index="0" speed="9.26" length="14.34" shape="-300.89,5.44 -300.85,5.15 -298.60,1.40 -294.85,-0.85 -289.60,-1.60"/>
    </edge>
    <edge id=":J1_4" function="internal">
        <lane id=":J1_4_0" index="0" speed="6.51" length="9.03" shape="-289.60,4.80 -292.05,5.15 -293.80,6.20 -294.85,7.95 -295.20,10.40"/>
    </edge>
    <edge id=":J1_5" function="internal">
        <lane id=":J1_5_0" index="0" speed="13.89" length="20.80" shape="-289.60,4.80 -310.40,4.80"/>
        <lane id=":J1_5_1" index="1" speed="13.89" length="20.80" shape="-289.60,1.60 -310.40,1.60"/>
    </edge>
    <edge id=":J1_7" function="internal">
        <lane id=":J1_7_0" index="0" speed="9.26" length="19.35" shape="-289.60,1.60 -294.85,0.85 -298.60,-1.40 -300.85,-5.15 -301.60,-10.40"/>
    </edge>
    <edge id=":J1_8" function="internal">
        <lane id=":J1_8_0" index="0" speed="6.51" length="9.03" shape="-295.20,-10.40 -294.85,-7.95 -293.80,-6.20 -292.05,-5.15 -289.60,-4.80"/>
    </edge>
    <edge id=":J1_9" function="internal">
        <lane id=":J1_9_0" index="0" speed="13.89" length="20.80" shape="-295.20,-10.40 -295.20,10.40"/>
        <lane id=":J1_9_1" index="1" speed="13.89" length="20.80" shape="-298.40,-10.40 -298.40,10.40"/>
    </edge>
    <edge id=":J1_11" function="internal">
        <lane id=":J1_11_0" index="0" speed="9.26" length="5.01" shape="-298.40,-10.40 -299.11,-5.44"/>
    </edge>
    <edge id=":J1_17" function="internal">
        <lane id=":J1_17_0" index="0" speed="9.26" length="14.34" shape="-299.11,-5.44 -299.15,-5.15 -301.40,-1.40 -305.15,0.85 -310.40,1.60"/>
    </edge>
    <edge id=":J1_12" function="internal">
        <lane id=":J1_12_0" index="0" speed="6.51" length="9.03" shape="-310.40,-4.80 -307.95,-5.15 -306.20,-6.20 -305.15,-7.95 -304.80,-10.40"/>
    </edge>
    <edge id=":J1_13" function="internal">
        <lane id=":J1_13_0" index="0" speed="13.89" length="20.80" shape="-310.40,-4.80 -289.60,-4.80"/>
        <lane id=":J1_13_1" index="1" speed="13.89" length="20.80" shape="-310.40,-1.60 -289.60,-1.60"/>
    </edge>
    <edge id=":J1_15" function="internal">
        <lane id=":J1_15_0" index="0" speed="9.26" length="19.35" shape="-310.40,-1.60 -305.15,-0.85 -301.40,1.40 -299.15,5.15 -298.40,10.40"/>
    </edge>
    <edge id=":J11_0" function="internal">
        <lane id=":J11_0_0" index="0" speed="8.96" length="18.06" shape="-293.60,304.80 -298.50,304.10 -302.00,302.00 -304.10,298.50 -304.80,293.60"/>
        <lane id=":J11_0_1" index="1" speed="7.66" length="12.90" shape="-293.60,301.60 -297.10,301.10 -299.60,299.60 -301.10,297.10 -301.60,293.60"/>
    </edge>
    <edge id=":J11_2" function="internal">
        <lane id=":J11_2_0" index="0" speed="3.90" length="2.58" shape="-295.20,293.60 -295.10,294.30 -294.80,294.80 -294.30,295.10 -293.60,295.20"/>
        <lane id=":J11_2_1" index="1" speed="6.08" length="7.74" shape="-298.40,293.60 -298.10,295.70 -297.20,297.20 -295.70,298.10 -293.60,298.40"/>
    </edge>
    <edge id=":J12_0" function="internal">
        <lane id=":J12_0_0" index="0" speed="8.96" length="18.06" shape="-304.80,-293.60 -304.10,-298.50 -302.00,-302.00 -298.50,-304.10 -293.60,-304.80"/>
        <lane id=":J12_0_1" index="1" speed="7.66" length="12.90" shape="-301.60,-293.60 -301.10,-297.10 -299.60,-299.60 -297.10,-301.10 -293.60,-301.60"/>
    </edge>
    <edge id=":J12_2" function="internal">
        <lane id=":J12_2_0" index="0" speed="3.90" length="2.58" shape="-293.60,-295.20 -294.30,-295.10 -294.80,-294.80 -295.10,-294.30 -295.20,-293.60"/>
        <lane id=":J12_2_1" index="1" speed="6.08" length="7.74" shape="-293.60,-298.40 -295.70,-298.10 -297.20,-297.20 -298.10,-295.70 -298.40,-293.60"/>
    </edge>
    <edge id=":J13_0" function="internal">
        <lane id=":J13_0_0" index="0" speed="6.51" length="9.03" shape="595.20,10.40 594.85,7.95 593.80,6.20 592.05,5.15 589.60,4.80"/>
    </edge>
    <edge id=":J13_1" function="internal">
        <lane id=":J13_1_0" index="0" speed="13.89" length="20.80" shape="595.20,10.40 595.20,-10.40"/>
        <lane id=":J13_1_1" index="1" speed="13.89" length="20.80" shape="598.40,10.40 598.40,-10.40"/>
    </edge>
    <edge id=":J13_3" function="internal">
        <lane id=":J13_3_0" index="0" speed="9.26" length="5.01" shape="598.40,10.40 599.11,5.44"/>
    </edge>
    <edge id=":J13_16" function="internal">
        <lane id=":J13_16_0" index="0" speed="9.26" length="14.34" shape="599.11,5.44 599.15,5.15 601.40,1.40 605.15,-0.85 610.40,-1.60"/>
    </edge>
    <edge id=":J13_4" function="internal">
        <lane id=":J13_4_0" index="0" speed="6.51" length="9.03" shape="610.40,4.80 607.95,5.15 606.20,6.20 605.15,7.95 604.80,10.40"/>
    </edge>
    <edge id=":J13_5" function="internal">
        <lane id=":J13_5_0" index="0" speed="13.89" length="20.80" shape="610.40,4.80 589.60,4.80"/>
        <lane id=":J13_5_1" index="1" speed="13.89" length="20.80" shape="610.40,1.60 589.60,1.60"/>
    </edge>
    <edge id=":J13_7" function="internal">
        <lane id=":J13_7_0" index="0" speed="9.26" length="19.35" shape="610.40,1.60 605.15,0.85 601.40,-1.40 599.15,-5.15 598.40,-10.40"/>
    </edge>
    <edge id=":J13_8" function="internal">
        <lane id=":J13_8_0" index="0" speed="6.51" length="9.03" shape="604.80,-10.40 605.15,-7.95 606.20,-6.20 607.95,-5.15 610.40,-4.80"/>
    </edge>
    <edge id=":J13_9" function="internal">
        <lane id=":J13_9_0" index="0" speed="13.89" length="20.80" shape="604.80,-10.40 604.80,10.40"/>
        <lane id=":J13_9_1" index="1" speed="13.89" length="20.80" shape="601.60,-10.40 601.60,10.40"/>
    </edge>
    <edge id=":J13_11" function="internal">
        <lane id=":J13_11_0" index="0" speed="9.26" length="5.01" shape="601.60,-10.40 600.89,-5.44"/>
    </edge>
    <edge id=":J13_17" function="internal">
        <lane id=":J13_17_0" index="0" speed="9.26" length="14.34" shape="600.89,-5.44 600.85,-5.15 598.60,-1.40 594.85,0.85 589.60,1.60"/>
    </edge>
    <edge id=":J13_12" function="internal">
        <lane id=":J13_12_0" index="0" speed="6.51" length="9.03" shape="589.60,-4.80 592.05,-5.15 593.80,-6.20 594.85,-7.95 595.20,-10.40"/>
    </edge>
    <edge id=":J13_13" function="internal">
        <lane id=":J13_13_0" index="0" speed="13.89" length="20.80" shape="589.60,-4.80 610.40,-4.80"/>
        <lane id=":J13_13_1" index="1" speed="13.89" length="20.80" shape="589.60,-1.60 610.40,-1.60"/>
    </edge>
    <edge id=":J13_15" function="internal">
        <lane id=":J13_15_0" index="0" speed="9.26" length="19.35" shape="589.60,-1.60 594.85,-0.85 598.60,1.40 600.85,5.15 601.60,10.40"/>
    </edge>
    <edge id=":J14_0" function="internal">
        <lane id=":J14_0_0" index="0" speed="13.89" length="20.80" shape="310.40,304.80 289.60,304.80"/>
        <lane id=":J14_0_1" index="1" speed="13.89" length="20.80" shape="310.40,301.60 289.60,301.60"/>
    </edge>
    <edge id=":J14_2" function="internal">
        <lane id=":J14_2_0" index="0" speed="9.26" length="5.01" shape="310.40,301.60 305.44,300.89"/>
    </edge>
    <edge id=":J14_8" function="internal">
        <lane id=":J14_8_0" index="0" speed="9.26" length="14.34" shape="305.44,300.89 305.15,300.85 301.40,298.60 299.15,294.85 298.40,289.60"/>
    </edge>
    <edge id=":J14_3" function="internal">
        <lane id=":J14_3_0" index="0" speed="6.51" length="9.03" shape="304.80,289.60 305.15,292.05 306.20,293.80 307.95,294.85 310.40,295.20"/>
    </edge>
    <edge id=":J14_4" function="internal">
        <lane id=":J14_4_0" index="0" speed="9.26" length="19.35" shape="301.60,289.60 300.85,294.85 298.60,298.60 294.85,300.85 289.60,301.60"/>
    </edge>
    <edge id=":J14_5" function="internal">
        <lane id=":J14_5_0" index="0" speed="6.51" length="9.03" shape="289.60,295.20 292.05,294.85 293.80,293.80 294.85,292.05 295.20,289.60"/>
    </edge>
    <edge id=":J14_6" function="internal">
        <lane id=":J14_6_0" index="0" speed="13.89" length="20.80" shape="289.60,295.20 310.40,295.20"/>
        <lane id=":J14_6_1" index="1" speed="13.89" length="20.80" shape="289.60,298.40 310.40,298.40"/>
    </edge>
    <edge id=":J15_0" function="internal">
        <lane id=":J15_0_0" index="0" speed="6.51" length="9.03" shape="295.20,-289.60 294.85,-292.05 293.80,-293.80 292.05,-294.85 289.60,-295.20"/>
    </edge>
    <edge id=":J15_1" function="internal">
        <lane id=":J15_1_0" index="0" speed="9.26" length="19.35" shape="298.40,-289.60 299.15,-294.85 301.40,-298.60 305.15,-300.85 310.40,-301.60"/>
    </edge>
    <edge id=":J15_2" function="internal">
        <lane id=":J15_2_0" index="0" speed="6.51" length="9.03" shape="310.40,-295.20 307.95,-294.85 306.20,-293.80 305.15,-292.05 304.80,-289.60"/>
    </edge>
    <edge id=":J15_3" function="internal">
        <lane id=":J15_3_0" index="0" speed="13.89" length="20.80" shape="310.40,-295.20 289.60,-295.20"/>
        <lane id=":J15_3_1" index="1" speed="13.89" length="20.80" shape="310.40,-298.40 289.60,-298.40"/>
    </edge>
    <edge id=":J15_5" function="internal">
        <lane id=":J15_5_0" index="0" speed="13.89" length="20.80" shape="289.60,-304.80 310.40,-304.80"/>
        <lane id=":J15_5_1" index="1" speed="13.89" length="20.80" shape="289.60,-301.60 310.40,-301.60"/>
    </edge>
    <edge id=":J15_7" function="internal">
        <lane id=":J15_7_0" index="0" speed="9.26" length="5.01" shape="289.60,-301.60 294.56,-300.89"/>
    </edge>
    <edge id=":J15_8" function="internal">
        <lane id=":J15_8_0" index="0" speed="9.26" length="14.34" shape="294.56,-300.89 294.85,-300.85 298.60,-298.60 300.85,-294.85 301.60,-289.60"/>
    </edge>
    <edge id=":J17_0" function="internal">
        <lane id=":J17_0_0" index="0" speed="8.96" length="18.06" shape="604.80,293.60 604.10,298.50 602.00,302.00 598.50,304.10 593.60,304.80"/>
        <lane id=":J17_0_1" index="1" speed="7.66" length="12.90" shape="601.60,293.60 601.10,297.10 599.60,299.60 597.10,301.10 593.60,301.60"/>
    </edge>
    <edge id=":J17_2" function="internal">
        <lane id=":J17_2_0" index="0" speed="3.90" length="2.58" shape="593.60,295.20 594.30,295.10 594.80,294.80 595.10,294.30 595.20,293.60"/>
        <lane id=":J17_2_1" index="1" speed="6.08" length="7.74" shape="593.60,298.40 595.70,298.10 597.20,297.20 598.10,295.70 598.40,293.60"/>
    </edge>
    <edge id=":J18_0" function="internal">
        <lane id=":J18_0_0" index="0" speed="3.90" length="2.58" shape="595.20,-293.60 595.10,-294.30 594.80,-294.80 594.30,-295.10 593.60,-295.20"/>
        <lane id=":J18_0_1" index="1" speed="6.08" length="7.74" shape="598.40,-293.60 598.10,-295.70 597.20,-297.20 595.70,-298.10 593.60,-298.40"/>
    </edge>
    <edge id=":J18_2" function="internal">
        <lane id=":J18_2_0" index="0" speed="8.96" length="18.06" shape="593.60,-304.80 598.50,-304.10 602.00,-302.00 604.10,-298.50 604.80,-293.60"/>
        <lane id=":J18_2_1" index="1" speed="7.66" length="12.90" shape="593.60,-301.60 597.10,-301.10 599.60,-299.60 601.10,-297.10 601.60,-293.60"/>
    </edge>
    <edge id=":J7_0" function="internal">
        <lane id=":J7_0_0" index="0" speed="13.89" length="20.80" shape="10.40,304.80 -10.40,304.80"/>
        <lane id=":J7_0_1" index="1" speed="13.89" length="20.80" shape="10.40,301.60 -10.40,301.60"/>
    </edge>
    <edge id=":J7_2" function="internal">
        <lane id=":J7_2_0" index="0" speed="9.26" length="5.01" shape="10.40,301.60 5.44,300.89"/>
    </edge>
    <edge id=":J7_8" function="internal">
        <lane id=":J7_8_0" index="0" speed="9.26" length="14.34" shape="5.44,300.89 5.15,300.85 1.40,298.60 -0.85,294.85 -1.60,289.60"/>
    </edge>
    <edge id=":J7_3" function="internal">
        <lane id=":J7_3_0" index="0" speed="6.51" length="9.03" shape="4.80,289.60 5.15,292.05 6.20,293.80 7.95,294.85 10.40,295.20"/>
    </edge>
    <edge id=":J7_4" function="internal">
        <lane id=":J7_4_0" index="0" speed="9.26" length="19.35" shape="1.60,289.60 0.85,294.85 -1.40,298.60 -5.15,300.85 -10.40,301.60"/>
    </edge>
    <edge id=":J7_5" function="internal">
        <lane id=":J7_5_0" index="0" speed="6.51" length="9.03" shape="-10.40,295.20 -7.95,294.85 -6.20,293.80 -5.15,292.05 -4.80,289.60"/>
    </edge>
    <edge id=":J7_6" function="internal">
        <lane id=":J7_6_0" index="0" speed="13.89" length="20.80" shape="-10.40,295.20 10.40,295.20"/>
        <lane id=":J7_6_1" index="1" speed="13.89" length="20.80" shape="-10.40,298.40 10.40,298.40"/>
    </edge>
    <edge id=":J8_0" function="internal">
        <lane id=":J8_0_0" index="0" speed="6.51" length="9.03" shape="295.20,10.40 294.85,7.95 293.80,6.20 292.05,5.15 289.60,4.80"/>
    </edge>
    <edge id=":J8_1" function="internal">
        <lane id=":J8_1_0" index="0" speed="13.89" length="20.80" shape="295.20,10.40 295.20,-10.40"/>
        <lane id=":J8_1_1" index="1" speed="13.89" length="20.80" shape="298.40,10.40 298.40,-10.40"/>
    </edge>
    <edge id=":J8_3" function="internal">
        <lane id=":J8_3_0" index="0" speed="9.26" length="5.01" shape="298.40,10.40 299.11,5.44"/>
    </edge>
    <edge id=":J8_16" function="internal">
        <lane id=":J8_16_0" index="0" speed="9.26" length="14.34" shape="299.11,5.44 299.15,5.15 301.40,1.40 305.15,-0.85 310.40,-1.60"/>
    </edge>
    <edge id=":J8_4" function="internal">
        <lane id=":J8_4_0" index="0" speed="6.51" length="9.03" shape="310.40,4.80 307.95,5.15 306.20,6.20 305.15,7.95 304.80,10.40"/>
    </edge>
    <edge id=":J8_5" function="internal">
        <lane id=":J8_5_0" index="0" speed="13.89" length="20.80" shape="310.40,4.80 289.60,4.80"/>
        <lane id=":J8_5_1" index="1" speed="13.89" length="20.80" shape="310.40,1.60 289.60,1.60"/>
    </edge>
    <edge id=":J8_7" function="internal">
        <lane id=":J8_7_0" index="0" speed="9.26" length="19.35" shape="310.40,1.60 305.15,0.85 301.40,-1.40 299.15,-5.15 298.40,-10.40"/>
    </edge>
    <edge id=":J8_8" function="internal">
        <lane id=":J8_8_0" index="0" speed="6.51" length="9.03" shape="304.80,-10.40 305.15,-7.95 306.20,-6.20 307.95,-5.15 310.40,-4.80"/>
    </edge>
    <edge id=":J8_9" function="internal">
        <lane id=":J8_9_0" index="0" speed="13.89" length="20.80" shape="304.80,-10.40 304.80,10.40"/>
        <lane id=":J8_9_1" index="1" speed="13.89" length="20.80" shape="301.60,-10.40 301.60,10.40"/>
    </edge>
    <edge id=":J8_11" function="internal">
        <lane id=":J8_11_0" index="0" speed="9.26" length="5.01" shape="301.60,-10.40 300.89,-5.44"/>
    </edge>
    <edge id=":J8_17" function="internal">
        <lane id=":J8_17_0" index="0" speed="9.26" length="14.34" shape="300.89,-5.44 300.85,-5.15 298.60,-1.40 294.85,0.85 289.60,1.60"/>
    </edge>
    <edge id=":J8_12" function="internal">
        <lane id=":J8_12_0" index="0" speed="6.51" length="9.03" shape="289.60,-4.80 292.05,-5.15 293.80,-6.20 294.85,-7.95 295.20,-10.40"/>
    </edge>
    <edge id=":J8_13" function="internal">
        <lane id=":J8_13_0" index="0" speed="13.89" length="20.80" shape="289.60,-4.80 310.40,-4.80"/>
        <lane id=":J8_13_1" index="1" speed="13.89" length="20.80" shape="289.60,-1.60 310.40,-1.60"/>
    </edge>
    <edge id=":J8_15" function="internal">
        <lane id=":J8_15_0" index="0" speed="9.26" length="19.35" shape="289.60,-1.60 294.85,-0.85 298.60,1.40 300.85,5.15 301.60,10.40"/>
    </edge>
    <edge id=":J9_0" function="internal">
        <lane id=":J9_0_0" index="0" speed="6.51" length="9.03" shape="-4.80,-289.60 -5.15,-292.05 -6.20,-293.80 -7.95,-294.85 -10.40,-295.20"/>
    </edge>
    <edge id=":J9_1" function="internal">
        <lane id=":J9_1_0" index="0" speed="9.26" length="19.35" shape="-1.60,-289.60 -0.85,-294.85 1.40,-298.60 5.15,-300.85 10.40,-301.60"/>
    </edge>
    <edge id=":J9_2" function="internal">
        <lane id=":J9_2_0" index="0" speed="6.51" length="9.03" shape="10.40,-295.20 7.95,-294.85 6.20,-293.80 5.15,-292.05 4.80,-289.60"/>
    </edge>
    <edge id=":J9_3" function="internal">
        <lane id=":J9_3_0" index="0" speed="13.89" length="20.80" shape="10.40,-295.20 -10.40,-295.20"/>
        <lane id=":J9_3_1" index="1" speed="13.89" length="20.80" shape="10.40,-298.40 -10.40,-298.40"/>
    </edge>
    <edge id=":J9_5" function="internal">
        <lane id=":J9_5_0" index="0" speed="13.89" length="20.80" shape="-10.40,-304.80 10.40,-304.80"/>
        <lane id=":J9_5_1" index="1" speed="13.89" length="20.80" shape="-10.40,-301.60 10.40,-301.60"/>
    </edge>
    <edge id=":J9_7" function="internal">
        <lane id=":J9_7_0" index="0" speed="9.26" length="5.01" shape="-10.40,-301.60 -5.44,-300.89"/>
    </edge>
    <edge id=":J9_8" function="internal">
        <lane id=":J9_8_0" index="0" speed="9.26" length="14.34" shape="-5.44,-300.89 -5.15,-300.85 -1.40,-298.60 0.85,-294.85 1.60,-289.60"/>
    </edge>

    <edge id="-E0" from="J1" to="J0" priority="-1">
        <lane id="-E0_0" index="0" speed="13.89" length="279.20" shape="-289.60,-4.80 -10.40,-4.80"/>
        <lane id="-E0_1" index="1" speed="13.89" length="279.20" shape="-289.60,-1.60 -10.40,-1.60"/>
    </edge>
    <edge id="-E10" from="J1" to="J11" priority="-1">
        <lane id="-E10_0" index="0" speed="13.89" length="283.20" shape="-295.20,10.40 -295.20,293.60"/>
        <lane id="-E10_1" index="1" speed="13.89" length="283.20" shape="-298.40,10.40 -298.40,293.60"/>
    </edge>
    <edge id="-E11" from="J1" to="J12" priority="-1">
        <lane id="-E11_0" index="0" speed="13.89" length="283.20" shape="-304.80,-10.40 -304.80,-293.60"/>
        <lane id="-E11_1" index="1" speed="13.89" length="283.20" shape="-301.60,-10.40 -301.60,-293.60"/>
    </edge>
    <edge id="-E12" from="J8" to="J13" priority="-1">
        <lane id="-E12_0" index="0" speed="13.89" length="279.20" shape="310.40,-4.80 589.60,-4.80"/>
        <lane id="-E12_1" index="1" speed="13.89" length="279.20" shape="310.40,-1.60 589.60,-1.60"/>
    </edge>
    <edge id="-E13" from="J8" to="J14" priority="-1">
        <lane id="-E13_0" index="0" speed="13.89" length="279.20" shape="304.80,10.40 304.80,289.60"/>
        <lane id="-E13_1" index="1" speed="13.89" length="279.20" shape="301.60,10.40 301.60,289.60"/>
    </edge>
    <edge id="-E14" from="J8" to="J15" priority="-1">
        <lane id="-E14_0" index="0" speed="13.89" length="279.20" shape="295.20,-10.40 295.20,-289.60"/>
        <lane id="-E14_1" index="1" speed="13.89" length="279.20" shape="298.40,-10.40 298.40,-289.60"/>
    </edge>
    <edge id="-E15" from="J13" to="J16" priority="-1">
        <lane id="-E15_0" index="0" speed="13.89" length="289.60" shape="610.40,-4.80 900.00,-4.80"/>
        <lane id="-E15_1" index="1" speed="13.89" length="289.60" shape="610.40,-1.60 900.00,-1.60"/>
    </edge>
    <edge id="-E16" from="J13" to="J17" priority="-1">
        <lane id="-E16_0" index="0" speed="13.89" length="283.20" shape="604.80,10.40 604.80,293.60"/>
        <lane id="-E16_1" index="1" speed="13.89" length="283.20" shape="601.60,10.40 601.60,293.60"/>
    </edge>
    <edge id="-E17" from="J13" to="J18" priority="-1">
        <lane id="-E17_0" index="0" speed="13.89" length="283.20" shape="595.20,-10.40 595.20,-293.60"/>
        <lane id="-E17_1" index="1" speed="13.89" length="283.20" shape="598.40,-10.40 598.40,-293.60"/>
    </edge>
    <edge id="-E18" from="J7" to="J11" priority="-1">
        <lane id="-E18_0" index="0" speed="13.89" length="283.20" shape="-10.40,304.80 -293.60,304.80"/>
        <lane id="-E18_1" index="1" speed="13.89" length="283.20" shape="-10.40,301.60 -293.60,301.60"/>
    </edge>
    <edge id="-E19" from="J14" to="J7" priority="-1">
        <lane id="-E19_0" index="0" speed="13.89" length="279.20" shape="289.60,304.80 10.40,304.80"/>
        <lane id="-E19_1" index="1" speed="13.89" length="279.20" shape="289.60,301.60 10.40,301.60"/>
    </edge>
    <edge id="-E20" from="J17" to="J14" priority="-1">
        <lane id="-E20_0" index="0" speed="13.89" length="283.20" shape="593.60,304.80 310.40,304.80"/>
        <lane id="-E20_1" index="1" speed="13.89" length="283.20" shape="593.60,301.60 310.40,301.60"/>
    </edge>
    <edge id="-E22" from="J9" to="J12" priority="-1">
        <lane id="-E22_0" index="0" speed="13.89" length="283.20" shape="-10.40,-295.20 -293.60,-295.20"/>
        <lane id="-E22_1" index="1" speed="13.89" length="283.20" shape="-10.40,-298.40 -293.60,-298.40"/>
    </edge>
    <edge id="-E23" from="J9" to="J15" priority="-1">
        <lane id="-E23_0" index="0" speed="13.89" length="279.20" shape="10.40,-304.80 289.60,-304.80"/>
        <lane id="-E23_1" index="1" speed="13.89" length="279.20" shape="10.40,-301.60 289.60,-301.60"/>
    </edge>
    <edge id="-E24" from="J15" to="J18" priority="-1">
        <lane id="-E24_0" index="0" speed="13.89" length="283.20" shape="310.40,-304.80 593.60,-304.80"/>
        <lane id="-E24_1" index="1" speed="13.89" length="283.20" shape="310.40,-301.60 593.60,-301.60"/>
    </edge>
    <edge id="-E6" from="J0" to="J7" priority="-1">
        <lane id="-E6_0" index="0" speed="13.89" length="279.20" shape="4.80,10.40 4.80,289.60"/>
        <lane id="-E6_1" index="1" speed="13.89" length="279.20" shape="1.60,10.40 1.60,289.60"/>
    </edge>
    <edge id="-E7" from="J0" to="J8" priority="-1">
        <lane id="-E7_0" index="0" speed="13.89" length="279.20" shape="10.40,-4.80 289.60,-4.80"/>
        <lane id="-E7_1" index="1" speed="13.89" length="279.20" shape="10.40,-1.60 289.60,-1.60"/>
    </edge>
    <edge id="-E8" from="J0" to="J9" priority="-1">
        <lane id="-E8_0" index="0" speed="13.89" length="279.20" shape="-4.80,-10.40 -4.80,-289.60"/>
        <lane id="-E8_1" index="1" speed="13.89" length="279.20" shape="-1.60,-10.40 -1.60,-289.60"/>
    </edge>
    <edge id="-E9" from="J1" to="J10" priority="-1">
        <lane id="-E9_0" index="0" speed="13.89" length="289.60" shape="-310.40,4.80 -600.00,4.80"/>
        <lane id="-E9_1" index="1" speed="13.89" length="289.60" shape="-310.40,1.60 -600.00,1.60"/>
    </edge>
    <edge id="E0" from="J0" to="J1" priority="-1">
        <lane id="E0_0" index="0" speed="13.89" length="279.20" shape="-10.40,4.80 -289.60,4.80"/>
        <lane id="E0_1" index="1" speed="13.89" length="279.20" shape="-10.40,1.60 -289.60,1.60"/>
    </edge>
    <edge id="E10" from="J11" to="J1" priority="-1">
        <lane id="E10_0" index="0" speed="13.89" length="283.20" shape="-304.80,293.60 -304.80,10.40"/>
        <lane id="E10_1" index="1" speed="13.89" length="283.20" shape="-301.60,293.60 -301.60,10.40"/>
    </edge>
    <edge id="E11" from="J12" to="J1" priority="-1">
        <lane id="E11_0" index="0" speed="13.89" length="283.20" shape="-295.20,-293.60 -295.20,-10.40"/>
        <lane id="E11_1" index="1" speed="13.89" length="283.20" shape="-298.40,-293.60 -298.40,-10.40"/>
    </edge>
    <edge id="E12" from="J13" to="J8" priority="-1">
        <lane id="E12_0" index="0" speed="13.89" length="279.20" shape="589.60,4.80 310.40,4.80"/>
        <lane id="E12_1" index="1" speed="13.89" length="279.20" shape="589.60,1.60 310.40,1.60"/>
    </edge>
    <edge id="E13" from="J14" to="J8" priority="-1">
        <lane id="E13_0" index="0" speed="13.89" length="279.20" shape="295.20,289.60 295.20,10.40"/>
        <lane id="E13_1" index="1" speed="13.89" length="279.20" shape="298.40,289.60 298.40,10.40"/>
    </edge>
    <edge id="E14" from="J15" to="J8" priority="-1">
        <lane id="E14_0" index="0" speed="13.89" length="279.20" shape="304.80,-289.60 304.80,-10.40"/>
        <lane id="E14_1" index="1" speed="13.89" length="279.20" shape="301.60,-289.60 301.60,-10.40"/>
    </edge>
    <edge id="E15" from="J16" to="J13" priority="-1">
        <lane id="E15_0" index="0" speed="13.89" length="289.60" shape="900.00,4.80 610.40,4.80"/>
        <lane id="E15_1" index="1" speed="13.89" length="289.60" shape="900.00,1.60 610.40,1.60"/>
    </edge>
    <edge id="E16" from="J17" to="J13" priority="-1">
        <lane id="E16_0" index="0" speed="13.89" length="283.20" shape="595.20,293.60 595.20,10.40"/>
        <lane id="E16_1" index="1" speed="13.89" length="283.20" shape="598.40,293.60 598.40,10.40"/>
    </edge>
    <edge id="E17" from="J18" to="J13" priority="-1">
        <lane id="E17_0" index="0" speed="13.89" length="283.20" shape="604.80,-293.60 604.80,-10.40"/>
        <lane id="E17_1" index="1" speed="13.89" length="283.20" shape="601.60,-293.60 601.60,-10.40"/>
    </edge>
    <edge id="E18" from="J11" to="J7" priority="-1">
        <lane id="E18_0" index="0" speed="13.89" length="283.20" shape="-293.60,295.20 -10.40,295.20"/>
        <lane id="E18_1" index="1" speed="13.89" length="283.20" shape="-293.60,298.40 -10.40,298.40"/>
    </edge>
    <edge id="E19" from="J7" to="J14" priority="-1">
        <lane id="E19_0" index="0" speed="13.89" length="279.20" shape="10.40,295.20 289.60,295.20"/>
        <lane id="E19_1" index="1" speed="13.89" length="279.20" shape="10.40,298.40 289.60,298.40"/>
    </edge>
    <edge id="E20" from="J14" to="J17" priority="-1">
        <lane id="E20_0" index="0" speed="13.89" length="283.20" shape="310.40,295.20 593.60,295.20"/>
        <lane id="E20_1" index="1" speed="13.89" length="283.20" shape="310.40,298.40 593.60,298.40"/>
    </edge>
    <edge id="E22" from="J12" to="J9" priority="-1">