<?xml version="1.0" encoding="UTF-8"?>

<routes xmlns:xsi="http://www.w3.org/2001/XMLSchema-instance" xsi:noNamespaceSchemaLocation="http://sumo.dlr.de/xsd/routes_file.xsd">

    <!-- Car flows (balanced) -->
    <flow id="f_0"  begin="0.00" from="-E12" to="-E14" end="3600.00" vehsPerHour="250"/>
    <flow id="f_1"  begin="0.00" from="-E12" to="-E13" end="3600.00" vehsPerHour="400"/>
    <flow id="f_2"  begin="0.00" from="-E12" to="-E15" end="3600.00" vehsPerHour="300"/>
    <flow id="f_3"  begin="0.00" from="E13"  to="E12"  end="3600.00" vehsPerHour="350"/>
    <flow id="f_4"  begin="0.00" from="E13"  to="-E14" end="3600.00" vehsPerHour="300"/>
    <flow id="f_5"  begin="0.00" from="E13"  to="-E15" end="3600.00" vehsPerHour="400"/>
    <flow id="f_6"  begin="0.00" from="E14"  to="-E15" end="3600.00" vehsPerHour="250"/>
    <flow id="f_7"  begin="0.00" from="E14"  to="E12"  end="3600.00" vehsPerHour="300"/>
    <flow id="f_8"  begin="0.00" from="E14"  to="-E13" end="3600.00" vehsPerHour="350"/>
    <flow id="f_9"  begin="0.00" from="E15"  to="E12"  end="3600.00" vehsPerHour="300"/>
    <flow id="f_10" begin="0.00" from="E15"  to="-E14" end="3600.00" vehsPerHour="250"/>
    <flow id="f_11" begin="0.00" from="E15"  to="-E13" end="3600.00" vehsPerHour="250"/>

    <!-- Bike flows (lower intensity) -->
    <flow id="f_12" type="DEFAULT_BIKETYPE" begin="0.00" color="128,0,0" from="-E12" to="-E13" end="3600.00" vehsPerHour="80"/>
    <flow id="f_13" type="DEFAULT_BIKETYPE" begin="0.00" color="128,0,0" from="-E12" to="-E14" end="3600.00" vehsPerHour="60"/>
    <flow id="f_14" type="DEFAULT_BIKETYPE" begin="0.00" color="128,0,0" from="-E12" to="-E15" end="3600.00" vehsPerHour="50"/>
    <flow id="f_15" type="DEFAULT_BIKETYPE" begin="0.00" color="128,0,0" from="E15" to="E12"  end="3600.00" vehsPerHour="50"/>
    <flow id="f_16" type="DEFAULT_BIKETYPE" begin="0.00" color="128,0,0" from="E15" to="-E15" end="3600.00" vehsPerHour="80"/>
    <flow id="f_17" type="DEFAULT_BIKETYPE" begin="0.00" color="128,0,0" from="E15" to="-E14" end="3600.00" vehsPerHour="70"/>
    <flow id="f_18" type="DEFAULT_BIKETYPE" begin="0.00" color="128,0,0" from="E15" to="-E13" end="3600.00" vehsPerHour="60"/>
    <flow id="f_19" type="DEFAULT_BIKETYPE" begin="0.00" color="128,0,0" from="E14" to="-E14" end="3600.00" vehsPerHour="50"/>
    <flow id="f_20" type="DEFAULT_BIKETYPE" begin="0.00" color="128,0,0" from="E14" to="-E15" end="3600.00" vehsPerHour="80"/>
    <flow id="f_21" type="DEFAULT_BIKETYPE" begin="0.00" color="128,0,0" from="E14" to="-E13" end="3600.00" vehsPerHour="70"/>
    <flow id="f_22" type="DEFAULT_BIKETYPE" begin="0.00" color="128,0,0" from="E14" to="E12"  end="3600.00" vehsPerHour="60"/>
    <flow id="f_23" type="DEFAULT_BIKETYPE" begin="0.00" color="128,0,0" from="E13" to="-E15" end="3600.00" vehsPerHour="50"/>
    <flow id="f_24" type="DEFAULT_BIKETYPE" begin="0.00" color="128,0,0" from="E13" to="E12"  end="3600.00" vehsPerHour="80"/>
    <flow id="f_25" type="DEFAULT_BIKETYPE" begin="0.00" color="128,0,0" from="E13" to="-E14" end="3600.00" vehsPerHour="70"/>
    <flow id="f_26" type="DEFAULT_BIKETYPE" begin="0.00" color="128,0,0" from="E13" to="-E13" end="3600.00" vehsPerHour="60"/>
    <flow id="f_27" type="DEFAULT_BIKETYPE" begin="0.00" color="128,0,0" from="E14" to="-E14" end="3600.00" vehsPerHour="50"/>
    <flow id="f_28" type="DEFAULT_BIKETYPE" begin="0.00" color="128,0,0" from="E14" to="-E13" end="3600.00" vehsPerHour="80"/>
    <flow id="f_29" type="DEFAULT_BIKETYPE" begin="0.00" color="128,0,0" from="E14" to="E12"  end="3600.00" vehsPerHour="60"/>
    <flow id="f_30" type="DEFAULT_BIKETYPE" begin="0.00" color="128,0,0" from="E14" to="-E15" end="3600.00" vehsPerHour="70"/>

</routes>
