<?xml version="1.0" encoding="UTF-8"?>

<!-- generated on 2025-09-02 18:51:52 by Eclipse SUMO netedit Version 1.24.0
<neteditConfiguration xmlns:xsi="http://www.w3.org/2001/XMLSchema-instance" xsi:noNamespaceSchemaLocation="http://sumo.dlr.de/xsd/neteditConfiguration.xsd">

    <input>
        <sumocfg-file value="C:\Ojas\X\TrafIQ Project\SUMO Testing\PPO\ppo.cfg.sumocfg"/>
        <sumo-net-file value="C:\Ojas\X\TrafIQ Project\SUMO Testing\PPO\ppo.cfg.net.xml"/>
    </input>

    <output>
        <output-file value="C:\Ojas\X\TrafIQ Project\SUMO Testing\PPO\ppo.cfg.net.xml"/>
    </output>

    <processing>
        <offset.disable-normalization value="true"/>
    </processing>

    <junctions>
        <no-turnarounds value="true"/>
    </junctions>

    <netedit>
        <new-network value="false"/>
    </netedit>

</neteditConfiguration>
-->

<net version="1.20" junctionCornerDetail="5" limitTurnSpeed="5.50" xmlns:xsi="http://www.w3.org/2001/XMLSchema-instance" xsi:noNamespaceSchemaLocation="http://sumo.dlr.de/xsd/net_file.xsd">

    <location netOffset="0.00,0.00" convBoundary="-500.00,-300.00,300.00,500.00" origBoundary="10000000000.00,10000000000.00,-10000000000.00,-10000000000.00" projParameter="!"/>

    <edge id=":J17_0" function="internal">
        <lane id=":J17_0_0" index="0" speed="6.51" length="9.03" shape="-111.20,116.80 -111.55,114.35 -112.60,112.60 -114.35,111.55 -116.80,111.20"/>
    </edge>
    <edge id=":J17_1" function="internal">
        <lane id=":J17_1_0" index="0" speed="13.89" length="33.60" shape="-111.20,116.80 -111.20,83.20"/>
        <lane id=":J17_1_1" index="1" speed="13.89" length="33.60" shape="-108.00,116.80 -108.00,83.20"/>
        <lane id=":J17_1_2" index="2" speed="13.89" length="33.60" shape="-104.80,116.80 -104.80,83.20"/>
    </edge>
    <edge id=":J17_4" function="internal">
        <lane id=":J17_4_0" index="0" speed="9.32" length="3.03" shape="-101.60,116.80 -102.33,113.86"/>
        <lane id=":J17_4_1" index="1" speed="9.84" length="4.01" shape="-101.60,116.80 -102.31,112.85"/>
        <lane id=":J17_4_2" index="2" speed="10.36" length="5.01" shape="-101.60,116.80 -102.31,111.84"/>
    </edge>
    <edge id=":J17_7" function="internal">
        <lane id=":J17_7_0" index="0" speed="13.89" length="33.60" shape="-101.60,116.80 -101.60,83.20"/>
    </edge>
    <edge id=":J17_8" function="internal">
        <lane id=":J17_8_0" index="0" speed="12.76" length="7.53" shape="-101.60,116.80 -100.90,109.30"/>
        <lane id=":J17_8_1" index="1" speed="12.30" length="6.69" shape="-101.60,116.80 -100.89,110.15"/>
        <lane id=":J17_8_2" index="2" speed="11.84" length="5.85" shape="-101.60,116.80 -100.89,110.99"/>
        <lane id=":J17_8_3" index="3" speed="11.36" length="5.01" shape="-101.60,116.80 -100.89,111.84"/>
    </edge>
    <edge id=":J17_12" function="internal">
        <lane id=":J17_12_0" index="0" speed="6.33" length="1.51" shape="-101.60,116.80 -100.75,115.52"/>
        <lane id=":J17_12_1" index="1" speed="5.58" length="1.51" shape="-101.60,116.80 -100.75,115.52"/>
        <lane id=":J17_12_2" index="2" speed="4.72" length="1.51" shape="-101.60,116.80 -100.75,115.52"/>
        <lane id=":J17_12_3" index="3" speed="3.65" length="1.51" shape="-101.60,116.80 -100.80,115.60"/>
    </edge>
    <edge id=":J17_62" function="internal">
        <lane id=":J17_62_0" index="0" speed="9.32" length="16.60" shape="-102.33,113.86 -102.55,112.95 -105.40,110.20 -110.15,108.55 -116.80,108.00"/>
        <lane id=":J17_62_1" index="0" speed="9.84" length="17.98" shape="-102.31,112.85 -102.55,111.55 -105.40,107.80 -110.15,105.55 -116.80,104.80"/>
        <lane id=":J17_62_2" index="0" speed="10.36" length="19.50" shape="-102.31,111.84 -102.55,110.15 -105.40,105.40 -110.15,102.55 -116.80,101.60"/>
    </edge>
    <edge id=":J17_63" function="internal">
        <lane id=":J17_63_0" index="0" speed="12.76" length="30.20" shape="-100.90,109.30 -100.45,104.55 -97.00,95.80 -91.25,90.55 -83.20,88.80"/>
        <lane id=":J17_63_1" index="0" speed="12.30" length="28.30" shape="-100.89,110.15 -100.45,105.95 -97.00,98.20 -91.25,93.55 -83.20,92.00"/>
        <lane id=":J17_63_2" index="0" speed="11.84" length="26.45" shape="-100.89,110.99 -100.45,107.35 -97.00,100.60 -91.25,96.55 -83.20,95.20"/>
        <lane id=":J17_63_3" index="0" speed="11.36" length="24.66" shape="-100.89,111.84 -100.45,108.75 -97.00,103.00 -91.25,99.55 -83.20,98.40"/>
    </edge>
    <edge id=":J17_64" function="internal">
        <lane id=":J17_64_0" index="0" speed="6.33" length="17.16" shape="-100.75,115.52 -98.40,112.00 -95.20,110.40 -92.00,112.00 -88.80,116.80"/>
        <lane id=":J17_64_1" index="0" speed="5.58" length="12.49" shape="-100.75,115.52 -99.20,113.20 -96.80,112.00 -94.40,113.20 -92.00,116.80"/>
        <lane id=":J17_64_2" index="0" speed="4.72" length="7.81" shape="-100.75,115.52 -100.00,114.40 -98.40,113.60 -96.80,114.40 -95.20,116.80"/>
        <lane id=":J17_64_3" index="0" speed="3.65" length="3.23" shape="-100.80,115.60 -100.00,115.20 -99.20,115.60 -98.40,116.80"/>
    </edge>
    <edge id=":J17_16" function="internal">
        <lane id=":J17_16_0" index="0" speed="6.51" length="9.03" shape="-83.20,111.20 -85.65,111.55 -87.40,112.60 -88.45,114.35 -88.80,116.80"/>
        <lane id=":J17_16_1" index="1" speed="8.00" length="14.19" shape="-83.20,108.00 -87.05,108.55 -89.80,110.20 -91.45,112.95 -92.00,116.80"/>
    </edge>
    <edge id=":J17_18" function="internal">
        <lane id=":J17_18_0" index="0" speed="13.89" length="33.70" shape="-83.20,108.00 -93.20,108.50 -100.00,109.60 -106.80,110.70 -116.80,111.20"/>
        <lane id=":J17_18_1" index="1" speed="13.89" length="33.70" shape="-83.20,108.00 -116.80,108.00"/>
        <lane id=":J17_18_2" index="2" speed="13.89" length="33.70" shape="-83.20,104.80 -116.80,104.80"/>
        <lane id=":J17_18_3" index="3" speed="13.89" length="33.70" shape="-83.20,104.80 -93.20,104.30 -100.00,103.20 -106.80,102.10 -116.80,101.60"/>
    </edge>
    <edge id=":J17_22" function="internal">
        <lane id=":J17_22_0" index="0" speed="12.64" length="15.75" shape="-83.20,104.80 -91.32,102.57 -97.61,98.81"/>
        <lane id=":J17_22_1" index="1" speed="12.26" length="19.78" shape="-83.20,104.80 -90.82,102.66 -98.93,97.28 -100.38,95.71"/>
        <lane id=":J17_22_2" index="2" speed="12.28" length="16.98" shape="-83.20,104.80 -92.65,103.45 -99.03,99.62"/>
    </edge>
    <edge id=":J17_25" function="internal">
        <lane id=":J17_25_0" index="0" speed="9.84" length="3.17" shape="-83.20,101.60 -86.32,102.16"/>
        <lane id=":J17_25_1" index="1" speed="10.36" length="3.74" shape="-83.20,101.60 -86.90,102.13"/>
    </edge>
    <edge id=":J17_27" function="internal">
        <lane id=":J17_27_0" index="0" speed="11.07" length="7.23" shape="-83.20,101.60 -89.73,99.94 -90.13,99.66"/>
    </edge>
    <edge id=":J17_28" function="internal">
        <lane id=":J17_28_0" index="0" speed="6.33" length="1.57" shape="-83.20,101.60 -84.54,100.71"/>
        <lane id=":J17_28_1" index="1" speed="5.58" length="1.57" shape="-83.20,101.60 -84.54,100.71"/>
        <lane id=":J17_28_2" index="2" speed="4.72" length="1.57" shape="-83.20,101.60 -84.54,100.71"/>
        <lane id=":J17_28_3" index="3" speed="3.65" length="1.57" shape="-83.20,101.60 -84.40,100.80"/>
    </edge>
    <edge id=":J17_65" function="internal">
        <lane id=":J17_65_0" index="0" speed="12.64" length="21.23" shape="-97.61,98.81 -100.53,97.05 -108.07,90.01 -111.20,83.20"/>
        <lane id=":J17_65_1" index="0" speed="12.26" length="14.93" shape="-100.38,95.71 -105.38,90.27 -108.00,83.20"/>
        <lane id=":J17_65_2" index="0" speed="12.28" length="17.85" shape="-99.03,99.62 -99.40,99.40 -103.45,92.65 -104.80,83.20"/>
    </edge>
    <edge id=":J17_66" function="internal">
        <lane id=":J17_66_0" index="0" speed="9.84" length="18.82" shape="-86.32,102.16 -88.45,102.55 -92.20,105.40 -94.45,110.15 -95.20,116.80"/>
        <lane id=":J17_66_1" index="0" speed="10.36" length="20.78" shape="-86.90,102.13 -89.85,102.55 -94.60,105.40 -97.45,110.15 -98.40,116.80"/>
    </edge>
    <edge id=":J17_67" function="internal">
        <lane id=":J17_67_0" index="0" speed="11.07" length="20.87" shape="-90.13,99.66 -95.65,95.65 -99.94,89.73 -101.60,83.20"/>
    </edge>
    <edge id=":J17_68" function="internal">
        <lane id=":J17_68_0" index="0" speed="6.33" length="17.09" shape="-84.54,100.71 -88.00,98.40 -89.60,95.20 -88.00,92.00 -83.20,88.80"/>
        <lane id=":J17_68_1" index="0" speed="5.58" length="12.41" shape="-84.54,100.71 -86.80,99.20 -88.00,96.80 -86.80,94.40 -83.20,92.00"/>
        <lane id=":J17_68_2" index="0" speed="4.72" length="7.74" shape="-84.54,100.71 -85.60,100.00 -86.40,98.40 -85.60,96.80 -83.20,95.20"/>
        <lane id=":J17_68_3" index="0" speed="3.65" length="3.23" shape="-84.40,100.80 -84.80,100.00 -84.40,99.20 -83.20,98.40"/>
    </edge>
    <edge id=":J17_32" function="internal">
        <lane id=":J17_32_0" index="0" speed="6.51" length="9.03" shape="-88.80,83.20 -88.45,85.65 -87.40,87.40 -85.65,88.45 -83.20,88.80"/>
    </edge>
    <edge id=":J17_33" function="internal">
        <lane id=":J17_33_0" index="0" speed="13.89" length="33.60" shape="-88.80,83.20 -88.80,116.80"/>
        <lane id=":J17_33_1" index="1" speed="13.89" length="33.60" shape="-92.00,83.20 -92.00,116.80"/>
        <lane id=":J17_33_2" index="2" speed="13.89" length="33.60" shape="-95.20,83.20 -95.20,116.80"/>
    </edge>
    <edge id=":J17_36" function="internal">
        <lane id=":J17_36_0" index="0" speed="9.32" length="3.03" shape="-98.40,83.20 -97.67,86.14"/>
        <lane id=":J17_36_1" index="1" speed="9.84" length="4.01" shape="-98.40,83.20 -97.69,87.15"/>
        <lane id=":J17_36_2" index="2" speed="10.36" length="5.01" shape="-98.40,83.20 -97.69,88.16"/>
    </edge>
    <edge id=":J17_39" function="internal">
        <lane id=":J17_39_0" index="0" speed="13.89" length="33.60" shape="-98.40,83.20 -98.40,116.80"/>
    </edge>
    <edge id=":J17_40" function="internal">
        <lane id=":J17_40_0" index="0" speed="12.76" length="7.53" shape="-98.40,83.20 -99.10,90.70"/>
        <lane id=":J17_40_1" index="1" speed="12.30" length="6.69" shape="-98.40,83.20 -99.11,89.85"/>
        <lane id=":J17_40_2" index="2" speed="11.84" length="5.85" shape="-98.40,83.20 -99.11,89.01"/>
        <lane id=":J17_40_3" index="3" speed="11.36" length="5.01" shape="-98.40,83.20 -99.11,88.16"/>
    </edge>
    <edge id=":J17_44" function="internal">
        <lane id=":J17_44_0" index="0" speed="6.33" length="1.51" shape="-98.40,83.20 -99.25,84.48"/>
        <lane id=":J17_44_1" index="1" speed="5.58" length="1.51" shape="-98.40,83.20 -99.25,84.48"/>
        <lane id=":J17_44_2" index="2" speed="4.72" length="1.51" shape="-98.40,83.20 -99.25,84.48"/>
        <lane id=":J17_44_3" index="3" speed="3.65" length="1.51" shape="-98.40,83.20 -99.20,84.40"/>
    </edge>
    <edge id=":J17_69" function="internal">
        <lane id=":J17_69_0" index="0" speed="9.32" length="16.60" shape="-97.67,86.14 -97.45,87.05 -94.60,89.80 -89.85,91.45 -83.20,92.00"/>
        <lane id=":J17_69_1" index="0" speed="9.84" length="17.98" shape="-97.69,87.15 -97.45,88.45 -94.60,92.20 -89.85,94.45 -83.20,95.20"/>
        <lane id=":J17_69_2" index="0" speed="10.36" length="19.50" shape="-97.69,88.16 -97.45,89.85 -94.60,94.60 -89.85,97.45 -83.20,98.40"/>
    </edge>
    <edge id=":J17_70" function="internal">
        <lane id=":J17_70_0" index="0" speed="12.76" length="30.20" shape="-99.10,90.70 -99.55,95.45 -103.00,104.20 -108.75,109.45 -116.80,111.20"/>
        <lane id=":J17_70_1" index="0" speed="12.30" length="28.30" shape="-99.11,89.85 -99.55,94.05 -103.00,101.80 -108.75,106.45 -116.80,108.00"/>
        <lane id=":J17_70_2" index="0" speed="11.84" length="26.45" shape="-99.11,89.01 -99.55,92.65 -103.00,99.40 -108.75,103.45 -116.80,104.80"/>
        <lane id=":J17_70_3" index="0" speed="11.36" length="24.66" shape="-99.11,88.16 -99.55,91.25 -103.00,97.00 -108.75,100.45 -116.80,101.60"/>
    </edge>
    <edge id=":J17_71" function="internal">
        <lane id=":J17_71_0" index="0" speed="6.33" length="17.16" shape="-99.25,84.48 -101.60,88.00 -104.80,89.60 -108.00,88.00 -111.20,83.20"/>
        <lane id=":J17_71_1" index="0" speed="5.58" length="12.49" shape="-99.25,84.48 -100.80,86.80 -103.20,88.00 -105.60,86.80 -108.00,83.20"/>
        <lane id=":J17_71_2" index="0" speed="4.72" length="7.81" shape="-99.25,84.48 -100.00,85.60 -101.60,86.40 -103.20,85.60 -104.80,83.20"/>
        <lane id=":J17_71_3" index="0" speed="3.65" length="3.23" shape="-99.20,84.40 -100.00,84.80 -100.80,84.40 -101.60,83.20"/>
    </edge>
    <edge id=":J17_48" function="internal">
        <lane id=":J17_48_0" index="0" speed="6.51" length="9.03" shape="-116.80,88.80 -114.35,88.45 -112.60,87.40 -111.55,85.65 -111.20,83.20"/>
        <lane id=":J17_48_1" index="1" speed="8.00" length="14.19" shape="-116.80,92.00 -112.95,91.45 -110.20,89.80 -108.55,87.05 -108.00,83.20"/>
    </edge>
    <edge id=":J17_50" function="internal">
        <lane id=":J17_50_0" index="0" speed="13.89" length="33.70" shape="-116.80,92.00 -106.80,91.50 -100.00,90.40 -93.20,89.30 -83.20,88.80"/>
        <lane id=":J17_50_1" index="1" speed="13.89" length="33.70" shape="-116.80,92.00 -83.20,92.00"/>
        <lane id=":J17_50_2" index="2" speed="13.89" length="33.70" shape="-116.80,95.20 -83.20,95.20"/>
        <lane id=":J17_50_3" index="3" speed="13.89" length="33.70" shape="-116.80,95.20 -106.80,95.70 -100.00,96.80 -93.20,97.90 -83.20,98.40"/>
    </edge>
    <edge id=":J17_54" function="internal">
        <lane id=":J17_54_0" index="0" speed="11.87" length="13.07" shape="-116.80,95.20 -109.68,97.33 -105.20,100.74"/>
    </edge>
    <edge id=":J17_55" function="internal">
        <lane id=":J17_55_0" index="0" speed="9.84" length="3.17" shape="-116.80,98.40 -113.68,97.84"/>
        <lane id=":J17_55_1" index="1" speed="10.36" length="3.74" shape="-116.80,98.40 -113.10,97.87"/>
    </edge>
    <edge id=":J17_57" function="internal">
        <lane id=":J17_57_0" index="0" speed="11.07" length="7.23" shape="-116.80,98.40 -110.27,100.06 -109.87,100.34"/>
    </edge>
    <edge id=":J17_58" function="internal">
        <lane id=":J17_58_0" index="0" speed="6.33" length="1.57" shape="-116.80,98.40 -115.46,99.29"/>
        <lane id=":J17_58_1" index="1" speed="5.58" length="1.57" shape="-116.80,98.40 -115.46,99.29"/>
        <lane id=":J17_58_2" index="2" speed="4.72" length="1.57" shape="-116.80,98.40 -115.46,99.29"/>
        <lane id=":J17_58_3" index="3" speed="3.65" length="1.57" shape="-116.80,98.40 -115.60,99.20"/>
    </edge>
    <edge id=":J17_72" function="internal">
        <lane id=":J17_72_0" index="0" speed="11.87" length="19.43" shape="-105.20,100.74 -102.67,102.67 -97.33,109.68 -95.20,116.80"/>
    </edge>
    <edge id=":J17_73" function="internal">
        <lane id=":J17_73_0" index="0" speed="9.84" length="18.82" shape="-113.68,97.84 -111.55,97.45 -107.80,94.60 -105.55,89.85 -104.80,83.20"/>
        <lane id=":J17_73_1" index="0" speed="10.36" length="20.78" shape="-113.10,97.87 -110.15,97.45 -105.40,94.60 -102.55,89.85 -101.60,83.20"/>
    </edge>
    <edge id=":J17_74" function="internal">
        <lane id=":J17_74_0" index="0" speed="11.07" length="20.87" shape="-109.87,100.34 -104.35,104.35 -100.06,110.27 -98.40,116.80"/>
    </edge>
    <edge id=":J17_75" function="internal">
        <lane id=":J17_75_0" index="0" speed="6.33" length="17.09" shape="-115.46,99.29 -112.00,101.60 -110.40,104.80 -112.00,108.00 -116.80,111.20"/>
        <lane id=":J17_75_1" index="0" speed="5.58" length="12.41" shape="-115.46,99.29 -113.20,100.80 -112.00,103.20 -113.20,105.60 -116.80,108.00"/>
        <lane id=":J17_75_2" index="0" speed="4.72" length="7.74" shape="-115.46,99.29 -114.40,100.00 -113.60,101.60 -114.40,103.20 -116.80,104.80"/>
        <lane id=":J17_75_3" index="0" speed="3.65" length="3.23" shape="-115.60,99.20 -115.20,100.00 -115.60,100.80 -116.80,101.60"/>
    </edge>

    <edge id="-E12" from="J18" to="J17" priority="-1">
        <lane id="-E12_0" index="0" speed="13.89" length="383.20" shape="-500.00,88.80 -116.80,88.80"/>
        <lane id="-E12_1" index="1" speed="13.89" length="383.20" shape="-500.00,92.00 -116.80,92.00"/>
        <lane id="-E12_2" index="2" speed="13.89" length="383.20" shape="-500.00,95.20 -116.80,95.20"/>
        <lane id="-E12_3" index="3" speed="13.89" length="383.20" shape="-500.00,98.40 -116.80,98.40"/>
    </edge>
    <edge id="-E13" from="J17" to="J19" priority="-1">
        <lane id="-E13_0" index="0" speed="13.89" length="383.20" shape="-88.80,116.80 -88.80,500.00"/>
        <lane id="-E13_1" index="1" speed="13.89" length="383.20" shape="-92.00,116.80 -92.00,500.00"/>
        <lane id="-E13_2" index="2" speed="13.89" length="383.20" shape="-95.20,116.80 -95.20,500.00"/>
        <lane id="-E13_3" index="3" speed="13.89" length="383.20" shape="-98.40,116.80 -98.40,500.00"/>
    </edge>
    <edge id="-E14" from="J17" to="J20" priority="-1">
        <lane id="-E14_0" index="0" speed="13.89" length="383.20" shape="-83.20,88.80 300.00,88.80"/>
        <lane id="-E14_1" index="1" speed="13.89" length="383.20" shape="-83.20,92.00 300.00,92.00"/>
        <lane id="-E14_2" index="2" speed="13.89" length="383.20" shape="-83.20,95.20 300.00,95.20"/>
        <lane id="-E14_3" index="3" speed="13.89" length="383.20" shape="-83.20,98.40 300.00,98.40"/>
    </edge>
    <edge id="-E15" from="J17" to="J21" priority="-1">
        <lane id="-E15_0" index="0" speed="13.89" length="383.20" shape="-111.20,83.20 -111.20,-300.00"/>
        <lane id="-E15_1" index="1" speed="13.89" length="383.20" shape="-108.00,83.20 -108.00,-300.00"/>
        <lane id="-E15_2" index="2" speed="13.89" length="383.20" shape="-104.80,83.20 -104.80,-300.00"/>
        <lane id="-E15_3" index="3" speed="13.89" length="383.20" shape="-101.60,83.20 -101.60,-300.00"/>
    </edge>
    <edge id="E12" from="J17" to="J18" priority="-1">
        <lane id="E12_0" index="0" speed="13.89" length="383.20" shape="-116.80,111.20 -500.00,111.20"/>
        <lane id="E12_1" index="1" speed="13.89" length="383.20" shape="-116.80,108.00 -500.00,108.00"/>
        <lane id="E12_2" index="2" speed="13.89" length="383.20" shape="-116.80,104.80 -500.00,104.80"/>
        <lane id="E12_3" index="3" speed="13.89" length="383.20" shape="-116.80,101.60 -500.00,101.60"/>
    </edge>
    <edge id="E13" from="J19" to="J17" priority="-1">
        <lane id="E13_0" index="0" speed="13.89" length="383.20" shape="-111.20,500.00 -111.20,116.80"/>
        <lane id="E13_1" index="1" speed="13.89" length="383.20" shape="-108.00,500.00 -108.00,116.80"/>
        <lane id="E13_2" index="2" speed="13.89" length="383.20" shape="-104.80,500.00 -104.80,116.80"/>
        <lane id="E13_3" index="3" speed="13.89" length="383.20" shape="-101.60,500.00 -101.60,116.80"/>
    </edge>
    <edge id="E14" from="J20" to="J17" priority="-1">
        <lane id="E14_0" index="0" speed="13.89" length="383.20" shape="300.00,111.20 -83.20,111.20"/>
        <lane id="E14_1" index="1" speed="13.89" length="383.20" shape="300.00,108.00 -83.20,108.00"/>
        <lane id="E14_2" index="2" speed="13.89" length="383.20" shape="300.00,104.80 -83.20,104.80"/>
        <lane id="E14_3" index="3" speed="13.89" length="383.20" shape="300.00,101.60 -83.20,101.60"/>
    </edge>
    <edge id="E15" from="J21" to="J17" priority="-1">
        <lane id="E15_0" index="0" speed="13.89" length="383.20" shape="-88.80,-300.00 -88.80,83.20"/>
        <lane id="E15_1" index="1" speed="13.89" length="383.20" shape="-92.00,-300.00 -92.00,83.20"/>
        <lane id="E15_2" index="2" speed="13.89" length="383.20" shape="-95.20,-300.00 -95.20,83.20"/>
        <lane id="E15_3" index="3" speed="13.89" length="383.20" shape="-98.40,-300.00 -98.40,83.20"/>
    </edge>

    <tlLogic id="J17" type="static" programID="0" offset="0">
        <phase duration="10" state="GGGGgggGggggggggrrrrrrrrrrrrrrrrGGGGgggGggggggggrrrrrrrrrrrrrr"/>
        <phase duration="3"  state="yyyyyyyyyyyyyyyyrrrrrrrrrrrrrrrryyyyyyyyyyyyyyyyrrrrrrrrrrrrrr"/>
        <phase duration="10" state="rrrrrrrrrrrrrrrrGGGGGGggggggggggrrrrrrrrrrrrrrrrGGGGGGgggggggg"/>
        <phase duration="3"  state="rrrrrrrrrrrrrrrryyyyyyyyyyyyyyyyrrrrrrrrrrrrrrrryyyyyyyyyyyyyy"/>
    </tlLogic>

    <junction id="J17" type="traffic_light" x="-100.00" y="100.00" incLanes="E13_0 E13_1 E13_2 E13_3 E14_0 E14_1 E14_2 E14_3 E15_0 E15_1 E15_2 E15_3 -E12_0 -E12_1 -E12_2 -E12_3" intLanes=":J17_0_0 :J17_1_0 :J17_1_1 :J17_1_2 :J17_62_0 :J17_62_1 :J17_62_2 :J17_7_0 :J17_63_0 :J17_63_1 :J17_63_2 :J17_63_3 :J17_64_0 :J17_64_1 :J17_64_2 :J17_64_3 :J17_16_0 :J17_16_1 :J17_18_0 :J17_18_1 :J17_18_2 :J17_18_3 :J17_65_0 :J17_65_1 :J17_65_2 :J17_66_0 :J17_66_1 :J17_67_0 :J17_68_0 :J17_68_1 :J17_68_2 :J17_68_3 :J17_32_0 :J17_33_0 :J17_33_1 :J17_33_2 :J17_69_0 :J17_69_1 :J17_69_2 :J17_39_0 :J17_70_0 :J17_70_1 :J17_70_2 :J17_70_3 :J17_71_0 :J17_71_1 :J17_71_2 :J17_71_3 :J17_48_0 :J17_48_1 :J17_50_0 :J17_50_1 :J17_50_2 :J17_50_3 :J17_72_0 :J17_73_0 :J17_73_1 :J17_74_0 :J17_75_0 :J17_75_1 :J17_75_2 :J17_75_3" shape="-112.80,116.80 -87.20,116.80 -86.76,114.58 -86.20,113.80 -85.42,113.24 -84.42,112.91 -83.20,112.80 -83.20,87.20 -85.42,86.76 -86.20,86.20 -86.76,85.42 -87.09,84.42 -87.20,83.20 -112.80,83.20 -113.24,85.42 -113.80,86.20 -114.58,86.76 -115.58,87.09 -116.80,87.20 -116.80,112.80 -114.58,113.24 -113.80,113.80 -113.24,114.58 -112.91,115.58">
        <request index="0"  response="00000000000000000000000000000000000000000000000000000000000000" foes="11110000000000000011110000000000000000001111000000000000000000" cont="0"/>
        <request index="1"  response="00001111000000000000000000000000001001110000000000000000000000" foes="00001111111111111111110000000000001001111111000000000001110000" cont="0"/>
        <request index="2"  response="00001111000000000000000000000000001001110000000000000000000000" foes="00001111111111111111110000000000001001111111000000000001110000" cont="0"/>
        <request index="3"  response="00001111000000000000000000000000001001110000000000000000000000" foes="00001111111111111111110000000000001001111111000000000001110000" cont="0"/>
        <request index="4"  response="00000000000000000000000000000000000000000000000000000000001110" foes="11110000000000000011110000000000000000001111000000000000001110" cont="1"/>
        <request index="5"  response="00000000000000000000000000000000000000000000000000000000001110" foes="11110000000000000011110000000000000000001111000000000000001110" cont="1"/>
        <request index="6"  response="00000000000000000000000000000000000000000000000000000000001110" foes="11110000000000000011110000000000000000001111000000000000001110" cont="1"/>
        <request index="7"  response="00001111000000000000000000000000001001110000000000000000000000" foes="00001111111111111111110000000000001001111111000000000000000000" cont="0"/>
        <request index="8"  response="00001001000000000000001111111100001001110000000000000000000000" foes="00001001111100000000001111111111111001111111000000000000000000" cont="1"/>
        <request index="9"  response="00001001000000000000001111111100001001110000000000000000000000" foes="00001001111100000000001111111111111001111111000000000000000000" cont="1"/>
        <request index="10" response="00001001000000000000001111111100001001110000000000000000000000" foes="00001001111100000000001111111111111001111111000000000000000000" cont="1"/>
        <request index="11" response="00001001000000000000001111111100001001110000000000000000000000" foes="00001001111100000000001111111111111001111111000000000000000000" cont="1"/>
        <request index="12" response="00001001000000000000001000111000000110000000110000000000000000" foes="00001001000000000000001000111000000110000000110000000000000000" cont="1"/>
        <request index="13" response="00001001000000000000001000111000000110000000110000000000000000" foes="00001001000000000000001000111000000110000000110000000000000000" cont="1"/>
        <request index="14" response="00001001000000000000001000111000000110000000110000000000000000" foes="00001001000000000000001000111000000110000000110000000000000000" cont="1"/>
        <request index="15" response="00001001000000000000001000111000000110000000110000000000000000" foes="00001001000000000000001000111000000110000000110000000000000000" cont="1"/>
        <request index="16" response="00000000000000000000001000111000000000000000000000000000000000" foes="00001001000000000000001000111000000000000000001111000000000000" cont="0"/>
        <request index="17" response="00000000000000000000001000111000000000000000000000000000000000" foes="00001001000000000000001000111000000000000000001111000000000000" cont="0"/>
        <request index="18" response="00000000000000000011111000111000000000000000000000111111111111" foes="11111001000000000011111000111000000110000000000000111111111111" cont="0"/>
        <request index="19" response="00000000000000000011111000111000000000000000000000111111111111" foes="11111001000000000011111000111000000110000000000000111111111111" cont="0"/>
        <request index="20" response="00000000000000000011111000111000000000000000000000111111111111" foes="11111001000000000011111000111000000110000000000000111111111111" cont="0"/>
        <request index="21" response="00000000000000000011111000111000000000000000000000111111111111" foes="11111001000000000011111000111000000110000000000000111111111111" cont="0"/>
        <request index="22" response="00000110111111000011111000111000000000000000000000111110001110" foes="00000110111111111111111000111000000110000000000000111110001110" cont="1"/>
        <request index="23" response="00000110111111000011111000111000000000000000000000111110001110" foes="00000110111111111111111000111000000110000000000000111110001110" cont="1"/>
        <request index="24" response="00000110111111000011111000111000000000000000000000111110001110" foes="00000110111111111111111000111000000110000000000000111110001110" cont="1"/>
        <request index="25" response="00000000000000000000001000111000000001111111000000000000000000" foes="00001001000000000000001000111000000001111111001111000000000000" cont="1"/>
        <request index="26" response="00000000000000000000001000111000000001111111000000000000000000" foes="00001001000000000000001000111000000001111111001111000000000000" cont="1"/>
        <request index="27" response="00000110111111000011111000111000000000000000000000111110001110" foes="00000110111111111111111000111000000000000000000000111110001110" cont="1"/>
        <request index="28" response="00000000111100000000000111000100000000000000000000111100000000" foes="00000000111100000000000111000100000000000000000000111100000000" cont="1"/>
        <request index="29" response="00000000111100000000000111000100000000000000000000111100000000" foes="00000000111100000000000111000100000000000000000000111100000000" cont="1"/>
        <request index="30" response="00000000111100000000000111000100000000000000000000111100000000" foes="00000000111100000000000111000100000000000000000000111100000000" cont="1"/>
        <request index="31" response="00000000111100000000000111000100000000000000000000111100000000" foes="00000000111100000000000111000100000000000000000000111100000000" cont="1"/>
        <request index="32" response="00000000000000000000000000000000000000000000000000000000000000" foes="00000000111100000000000000000011110000000000000000111100000000" cont="0"/>
        <request index="33" response="00001001000000000000000000000000001111110000000000000000000000" foes="00001001111100000000000111000000001111111111111111111100000000" cont="0"/>
        <request index="34" response="00001001000000000000000000000000001111110000000000000000000000" foes="00001001111100000000000111000000001111111111111111111100000000" cont="0"/>
        <request index="35" response="00001001000000000000000000000000001111110000000000000000000000" foes="00001001111100000000000111000000001111111111111111111100000000" cont="0"/>
        <request index="36" response="00000000000000000000000000111000000000000000000000000000000000" foes="00000000111100000000000000111011110000000000000000111100000000" cont="1"/>
        <request index="37" response="00000000000000000000000000111000000000000000000000000000000000" foes="00000000111100000000000000111011110000000000000000111100000000" cont="1"/>
        <request index="38" response="00000000000000000000000000111000000000000000000000000000000000" foes="00000000111100000000000000111011110000000000000000111100000000" cont="1"/>
        <request index="39" response="00001001000000000000000000000000001111110000000000000000000000" foes="00001001111100000000000000000000001111111111111111111100000000" cont="0"/>
        <request index="40" response="00001001000000000000000000000000001001110000000000000011111111" foes="11111001111100000000000000000000001001111111000000000011111111" cont="1"/>
        <request index="41" response="00001001000000000000000000000000001001110000000000000011111111" foes="11111001111100000000000000000000001001111111000000000011111111" cont="1"/>
        <request index="42" response="00001001000000000000000000000000001001110000000000000011111111" foes="11111001111100000000000000000000001001111111000000000011111111" cont="1"/>
        <request index="43" response="00001001000000000000000000000000001001110000000000000011111111" foes="11111001111100000000000000000000001001111111000000000011111111" cont="1"/>
        <request index="44" response="00000110000011000000000000000000001001110000000000000010001110" foes="00000110000011000000000000000000001001110000000000000010001110" cont="1"/>