<?xml version="1.0" encoding="UTF-8"?>

<!-- generated on 2025-08-20 23:55:33 by Eclipse SUMO netedit Version 1.23.1
-->

<neteditConfiguration xmlns:xsi="http://www.w3.org/2001/XMLSchema-instance" xsi:noNamespaceSchemaLocation="http://sumo.dlr.de/xsd/neteditConfiguration.xsd">

    <input>
        <sumocfg-file value="dqn.sumocfg"/>
        <additional-files value="dqn.add.xml"/>
        <route-files value="dqn.rou.xml"/>
        <sumo-net-file value="dqn.net.xml"/>
    </input>

    <processing>
        <offset.disable-normalization value="true"/>
    </processing>

    <junctions>
        <no-turnarounds value="true"/>
    </junctions>

    <netedit>
        <new-network value="false"/>
    </netedit>

</neteditConfiguration>
