<?xml version="1.0" encoding="UTF-8"?>

<!-- generated on 2025-08-20 23:55:32 by Eclipse SUMO sumo Version 1.23.1
-->

<sumoConfiguration xmlns:xsi="http://www.w3.org/2001/XMLSchema-instance" xsi:noNamespaceSchemaLocation="http://sumo.dlr.de/xsd/sumoConfiguration.xsd">

    <input>
        <net-file value="dqn.net.xml"/>
        <route-files value="dqn.rou.xml"/>
        <additional-files value="dqn.add.xml"/>
    </input>

</sumoConfiguration>
