<?xml version="1.0" encoding="UTF-8"?>

<!-- generated on 2025-08-20 23:50:41 by Eclipse SUMO netedit Version 1.23.1
-->

<additional xmlns:xsi="http://www.w3.org/2001/XMLSchema-instance" xsi:noNamespaceSchemaLocation="http://sumo.dlr.de/xsd/additional_file.xsd">
    <!-- Detectors -->
    <laneAreaDetector id="Node1_2_EB_0" lane="Node1_2_EB_0" pos="171.16" length="70.00" period="300.00" file="e2_1.xml"/>
    <laneAreaDetector id="Node1_2_EB_1" lane="Node1_2_EB_1" pos="170.63" length="70.00" period="300.00" file="e2_0.xml"/>
    <laneAreaDetector id="Node1_2_EB_2" lane="Node1_2_EB_2" pos="170.23" length="70.00" period="300.00" file="e2_2.xml"/>
    <laneAreaDetector id="Node2_3_WB_0" lane="Node2_3_WB_0" pos="174.36" length="70.00" period="300.00" file="e2_7.xml"/>
    <laneAreaDetector id="Node2_3_WB_1" lane="Node2_3_WB_1" pos="174.20" length="70.00" period="300.00" file="e2_6.xml"/>
    <laneAreaDetector id="Node2_3_WB_2" lane="Node2_3_WB_2" pos="174.03" length="70.00" period="300.00" file="e2_8.xml"/>
    <laneAreaDetector id="Node2_5_NB_0" lane="Node2_5_NB_0" pos="105.70" length="70.00" period="300.00" file="e2_9.xml"/>
    <laneAreaDetector id="Node2_5_NB_1" lane="Node2_5_NB_1" pos="106.26" length="70.00" period="300.00" file="e2_10.xml"/>
    <laneAreaDetector id="Node2_5_NB_2" lane="Node2_5_NB_2" pos="106.28" length="70.00" period="300.00" file="e2_11.xml"/>
    <laneAreaDetector id="Node2_7_SB_0" lane="Node2_7_SB_0" pos="80.49" length="70.00" period="300.00" file="e2_3.xml"/>
    <laneAreaDetector id="Node2_7_SB_1" lane="Node2_7_SB_1" pos="79.92" length="70.00" period="300.00" file="e2_4.xml"/>
    <laneAreaDetector id="Node2_7_SB_2" lane="Node2_7_SB_2" pos="79.84" length="70.00" period="300.00" file="e2_5.xml"/>
</additional>
