<?xml version="1.0" encoding="UTF-8"?>

<!-- generated on 2025-08-21 22:12:33 by Eclipse SUMO netedit Version 1.23.1
<neteditConfiguration xmlns:xsi="http://www.w3.org/2001/XMLSchema-instance" xsi:noNamespaceSchemaLocation="http://sumo.dlr.de/xsd/neteditConfiguration.xsd">

    <input>
        <sumo-net-file value="C:\Users\admin\Sumo\dqn\dqn.net.xml"/>
    </input>

    <output>
        <output-file value="C:\Users\admin\Sumo\dqn\dqn.net.xml"/>
    </output>

    <processing>
        <geometry.min-radius.fix.railways value="false"/>
        <geometry.avoid-overlap value="false"/>
        <geometry.max-grade.fix value="false"/>
        <offset.disable-normalization value="true"/>
        <lefthand value="0"/>
    </processing>

    <junctions>
        <no-turnarounds value="true"/>
        <junctions.corner-detail value="5"/>
        <junctions.limit-turn-speed value="5.50"/>
        <rectangular-lane-cut value="0"/>
    </junctions>

    <pedestrian>
        <walkingareas value="0"/>
    </pedestrian>

</neteditConfiguration>
-->

<net version="1.20" junctionCornerDetail="5" limitTurnSpeed="5.50" avoidOverlap="0" xmlns:xsi="http://www.w3.org/2001/XMLSchema-instance" xsi:noNamespaceSchemaLocation="http://sumo.dlr.de/xsd/net_file.xsd">

    <location netOffset="0.00,0.00" convBoundary="-43.91,-40.54,513.27,346.65" origBoundary="-10000000000.00,-10000000000.00,10000000000.00,10000000000.00" projParameter="!"/>

    <edge id=":J0_0" function="internal">
        <lane id=":J0_0_0" index="0" speed="11.13" length="27.91" shape="504.39,337.55 503.05,345.06 499.63,350.39 494.14,353.55 486.58,354.53"/>
        <lane id=":J0_0_1" index="1" speed="10.10" length="22.84" shape="501.19,337.44 500.09,343.58 497.30,347.95 492.81,350.53 486.62,351.33"/>
        <lane id=":J0_0_2" index="2" speed="8.97" length="17.76" shape="497.99,337.33 497.14,342.11 494.97,345.50 491.47,347.51 486.66,348.13"/>
    </edge>
    <edge id=":J0_3" function="internal">
        <lane id=":J0_3_0" index="0" speed="3.91" length="2.54" shape="486.78,338.53 487.46,338.45 487.96,338.16 488.27,337.67 488.40,336.99"/>
        <lane id=":J0_3_1" index="1" speed="6.08" length="7.61" shape="486.74,341.73 488.80,341.47 490.30,340.61 491.23,339.15 491.59,337.10"/>
        <lane id=":J0_3_2" index="2" speed="7.66" length="12.69" shape="486.70,344.93 490.14,344.49 492.63,343.05 494.18,340.63 494.79,337.22"/>
    </edge>
    <edge id=":Node1_0" function="internal">
        <lane id=":Node1_0_0" index="0" speed="11.12" length="28.38" shape="-34.38,178.87 -42.07,177.70 -47.54,174.35 -50.79,168.82 -51.83,161.11"/>
        <lane id=":Node1_0_1" index="1" speed="10.10" length="23.22" shape="-34.36,175.67 -40.65,174.71 -45.12,171.97 -47.78,167.45 -48.63,161.14"/>
        <lane id=":Node1_0_2" index="2" speed="8.96" length="18.06" shape="-34.33,172.47 -39.22,171.72 -42.70,169.59 -44.77,166.07 -45.43,161.17"/>
    </edge>
    <edge id=":Node1_3" function="internal">
        <lane id=":Node1_3_0" index="0" speed="3.90" length="2.58" shape="-35.83,161.25 -35.73,161.95 -35.44,162.46 -34.94,162.76 -34.24,162.87"/>
        <lane id=":Node1_3_1" index="1" speed="6.08" length="7.74" shape="-39.03,161.22 -38.74,163.33 -37.86,164.83 -36.37,165.75 -34.27,166.07"/>
        <lane id=":Node1_3_2" index="2" speed="7.66" length="12.90" shape="-42.23,161.20 -41.76,164.70 -40.28,167.21 -37.79,168.73 -34.30,169.27"/>
    </edge>
    <edge id=":Node2_0" function="internal">
        <lane id=":Node2_0_0" index="0" speed="6.76" length="9.72" shape="244.86,181.18 242.12,181.55 240.15,182.63 238.96,184.43 238.54,186.94"/>
    </edge>
    <edge id=":Node2_1" function="internal">
        <lane id=":Node2_1_0" index="0" speed="13.89" length="27.82" shape="244.86,181.18 217.00,181.12"/>
        <lane id=":Node2_1_1" index="1" speed="13.89" length="27.82" shape="244.84,177.98 217.03,177.92"/>
        <lane id=":Node2_1_2" index="2" speed="13.89" length="27.82" shape="244.83,174.78 217.06,174.72"/>
    </edge>
    <edge id=":Node2_4" function="internal">
        <lane id=":Node2_4_0" index="0" speed="10.29" length="25.13" shape="244.83,174.78 237.96,173.82 233.16,170.88 230.44,165.95 229.79,159.04"/>
    </edge>
    <edge id=":Node2_5" function="internal">
        <lane id=":Node2_5_0" index="0" speed="6.39" length="9.04" shape="239.38,159.52 239.61,162.00 240.59,163.77 242.32,164.83 244.79,165.18"/>
    </edge>
    <edge id=":Node2_6" function="internal">
        <lane id=":Node2_6_0" index="0" speed="13.89" length="27.56" shape="239.38,159.52 238.54,186.94"/>
        <lane id=":Node2_6_1" index="1" speed="13.89" length="27.56" shape="236.18,159.36 235.34,186.91"/>
        <lane id=":Node2_6_2" index="2" speed="13.89" length="27.56" shape="232.99,159.20 232.14,186.87"/>
    </edge>
    <edge id=":Node2_9" function="internal">
        <lane id=":Node2_9_0" index="0" speed="10.65" length="25.13" shape="232.99,159.20 231.70,166.04 228.62,170.91 223.74,173.80 217.06,174.72"/>
    </edge>
    <edge id=":Node2_10" function="internal">
        <lane id=":Node2_10_0" index="0" speed="6.94" length="10.10" shape="217.14,165.12 219.76,164.74 221.68,163.55 222.89,161.54 223.40,158.73"/>
    </edge>
    <edge id=":Node2_11" function="internal">
        <lane id=":Node2_11_0" index="0" speed="13.89" length="27.69" shape="217.14,165.12 244.79,165.18"/>
        <lane id=":Node2_11_1" index="1" speed="13.89" length="27.69" shape="217.12,168.32 244.80,168.38"/>
        <lane id=":Node2_11_2" index="2" speed="13.89" length="27.69" shape="217.09,171.52 244.82,171.58"/>
    </edge>
    <edge id=":Node2_14" function="internal">
        <lane id=":Node2_14_0" index="0" speed="10.36" length="24.53" shape="217.09,171.52 223.74,172.53 228.46,175.43 231.26,180.21 232.14,186.87"/>
    </edge>
    <edge id=":Node2_15" function="internal">
        <lane id=":Node2_15_0" index="0" speed="6.50" length="9.03" shape="222.54,186.77 222.22,184.32 221.19,182.56 219.45,181.49 217.00,181.12"/>
    </edge>
    <edge id=":Node2_16" function="internal">
        <lane id=":Node2_16_0" index="0" speed="13.89" length="27.93" shape="222.54,186.77 223.40,158.73"/>
        <lane id=":Node2_16_1" index="1" speed="13.89" length="27.93" shape="225.74,186.81 226.60,158.89"/>
        <lane id=":Node2_16_2" index="2" speed="13.89" length="27.93" shape="228.94,186.84 229.79,159.04"/>
    </edge>
    <edge id=":Node2_19" function="internal">
        <lane id=":Node2_19_0" index="0" speed="10.53" length="25.03" shape="228.94,186.84 230.00,180.19 232.99,175.43 237.93,172.56 244.82,171.58"/>
    </edge>
    <edge id=":Node3_0" function="internal">
        <lane id=":Node3_0_0" index="0" speed="13.89" length="26.95" shape="510.91,159.41 509.71,186.27"/>
        <lane id=":Node3_0_1" index="1" speed="13.89" length="26.95" shape="507.71,159.24 506.51,186.16"/>
        <lane id=":Node3_0_2" index="2" speed="13.89" length="26.95" shape="504.51,159.06 503.32,186.05"/>
    </edge>
    <edge id=":Node3_3" function="internal">
        <lane id=":Node3_3_0" index="0" speed="11.12" length="5.41" shape="504.51,159.06 503.57,164.39"/>
        <lane id=":Node3_3_1" index="1" speed="10.62" length="4.49" shape="504.51,159.06 503.61,163.46"/>
    </edge>
    <edge id=":Node3_12" function="internal">
        <lane id=":Node3_12_0" index="0" speed="11.12" length="21.72" shape="503.57,164.39 503.14,166.83 499.97,172.39 495.00,175.73 488.24,176.87"/>
        <lane id=":Node3_12_1" index="0" speed="10.62" length="20.14" shape="503.61,163.46 503.20,165.43 500.05,169.99 495.06,172.73 488.23,173.67"/>
    </edge>
    <edge id=":Node3_5" function="internal">
        <lane id=":Node3_5_0" index="0" speed="6.89" length="9.81" shape="488.18,164.07 491.02,163.72 493.09,162.68 494.40,160.95 494.93,158.54"/>
    </edge>
    <edge id=":Node3_6" function="internal">
        <lane id=":Node3_6_0" index="0" speed="11.31" length="30.28" shape="488.20,167.27 496.46,168.42 502.27,171.95 505.62,177.86 506.51,186.16"/>
        <lane id=":Node3_6_1" index="1" speed="10.31" length="24.97" shape="488.21,170.47 495.03,171.42 499.82,174.33 502.58,179.21 503.32,186.05"/>
    </edge>
    <edge id=":Node3_8" function="internal">
        <lane id=":Node3_8_0" index="0" speed="6.42" length="9.04" shape="493.72,185.71 493.46,183.23 492.46,181.47 490.72,180.42 488.26,180.07"/>
    </edge>
    <edge id=":Node3_9" function="internal">
        <lane id=":Node3_9_0" index="0" speed="13.89" length="27.13" shape="493.72,185.71 494.93,158.54"/>
        <lane id=":Node3_9_1" index="1" speed="13.89" length="27.13" shape="496.92,185.82 498.12,158.72"/>
        <lane id=":Node3_9_2" index="2" speed="13.89" length="27.13" shape="500.12,185.93 501.32,158.89"/>
    </edge>
    <edge id=":Node4_0" function="internal">
        <lane id=":Node4_0_0" index="0" speed="3.90" length="2.58" shape="-32.53,-32.44 -33.23,-32.34 -33.73,-32.05 -34.04,-31.55 -34.14,-30.85"/>
        <lane id=":Node4_0_1" index="1" speed="6.08" length="7.75" shape="-32.49,-35.64 -34.60,-35.36 -36.11,-34.47 -37.03,-32.98 -37.34,-30.88"/>
        <lane id=":Node4_0_2" index="2" speed="7.66" length="12.92" shape="-32.46,-38.84 -35.97,-38.37 -38.49,-36.90 -40.01,-34.41 -40.54,-30.91"/>
    </edge>
    <edge id=":Node4_3" function="internal">
        <lane id=":Node4_3_0" index="0" speed="11.12" length="28.43" shape="-50.14,-30.99 -48.97,-38.69 -45.62,-44.17 -40.08,-47.42 -32.35,-48.44"/>
        <lane id=":Node4_3_1" index="1" speed="10.10" length="23.26" shape="-46.94,-30.96 -45.99,-37.27 -43.24,-41.75 -38.71,-44.40 -32.39,-45.24"/>
        <lane id=":Node4_3_2" index="2" speed="8.96" length="18.09" shape="-43.74,-30.93 -43.00,-35.84 -40.86,-39.32 -37.34,-41.39 -32.42,-42.04"/>
    </edge>
    <edge id=":Node5_0" function="internal">
        <lane id=":Node5_0_0" index="0" speed="6.75" length="9.57" shape="254.29,-29.20 251.84,-28.86 250.05,-27.74 248.91,-25.82 248.43,-23.11"/>
    </edge>
    <edge id=":Node5_1" function="internal">
        <lane id=":Node5_1_0" index="0" speed="13.89" length="27.26" shape="254.29,-29.20 227.07,-29.62"/>
        <lane id=":Node5_1_1" index="1" speed="13.89" length="27.26" shape="254.35,-32.40 227.10,-32.82"/>
        <lane id=":Node5_1_2" index="2" speed="13.89" length="27.26" shape="254.42,-35.60 227.13,-36.02"/>
    </edge>
    <edge id=":Node5_4" function="internal">
        <lane id=":Node5_4_0" index="0" speed="13.89" length="27.35" shape="227.24,-45.62 254.61,-45.20"/>
        <lane id=":Node5_4_1" index="1" speed="13.89" length="27.35" shape="227.20,-42.42 254.55,-42.00"/>
        <lane id=":Node5_4_2" index="2" speed="13.89" length="27.35" shape="227.17,-39.22 254.48,-38.80"/>
    </edge>
    <edge id=":Node5_7" function="internal">
        <lane id=":Node5_7_0" index="0" speed="10.83" length="6.16" shape="227.17,-39.22 233.28,-38.42"/>
        <lane id=":Node5_7_1" index="1" speed="10.31" length="5.15" shape="227.17,-39.22 232.26,-38.43"/>
    </edge>
    <edge id=":Node5_12" function="internal">
        <lane id=":Node5_12_0" index="0" speed="10.83" length="21.49" shape="233.28,-38.42 235.36,-38.15 241.11,-35.13 244.40,-30.17 245.23,-23.27"/>
        <lane id=":Node5_12_1" index="0" speed="10.31" length="19.80" shape="232.26,-38.43 233.96,-38.17 238.71,-35.19 241.40,-30.27 242.04,-23.43"/>
    </edge>
    <edge id=":Node5_9" function="internal">
        <lane id=":Node5_9_0" index="0" speed="6.42" length="9.03" shape="232.45,-23.90 232.22,-26.38 231.24,-28.16 229.53,-29.24 227.07,-29.62"/>
    </edge>
    <edge id=":Node5_10" function="internal">
        <lane id=":Node5_10_0" index="0" speed="11.50" length="29.77" shape="235.64,-23.75 237.17,-31.87 240.83,-37.62 246.62,-40.99 254.55,-42.00"/>
        <lane id=":Node5_10_1" index="1" speed="10.52" length="24.72" shape="238.84,-23.59 240.11,-30.36 243.14,-35.15 247.93,-37.96 254.48,-38.80"/>
    </edge>
    <edge id=":Node6_0" function="internal">
        <lane id=":Node6_0_0" index="0" speed="11.11" length="29.09" shape="503.50,-40.14 511.41,-38.84 516.91,-35.32 520.01,-29.57 520.72,-21.59"/>
        <lane id=":Node6_0_1" index="1" speed="10.09" length="23.80" shape="503.44,-36.94 509.90,-35.88 514.41,-33.00 516.95,-28.29 517.53,-21.76"/>
        <lane id=":Node6_0_2" index="2" speed="8.96" length="18.51" shape="503.37,-33.74 508.40,-32.92 511.90,-30.67 513.88,-27.01 514.33,-21.94"/>
    </edge>
    <edge id=":Node6_3" function="internal">
        <lane id=":Node6_3_0" index="0" speed="3.90" length="2.64" shape="504.74,-22.46 504.68,-23.18 504.40,-23.71 503.90,-24.03 503.18,-24.14"/>
        <lane id=":Node6_3_1" index="1" speed="6.07" length="7.93" shape="507.94,-22.28 507.75,-24.46 506.90,-26.03 505.40,-26.99 503.24,-27.34"/>
        <lane id=":Node6_3_2" index="2" speed="7.65" length="13.22" shape="511.13,-22.11 510.81,-25.74 509.40,-28.35 506.90,-29.95 503.31,-30.54"/>
    </edge>
    <edge id=":Node7_0" function="internal">
        <lane id=":Node7_0_0" index="0" speed="11.12" length="28.36" shape="238.34,351.52 230.66,350.32 225.21,346.96 221.97,341.43 220.95,333.73"/>
        <lane id=":Node7_0_1" index="1" speed="10.10" length="23.20" shape="238.38,348.32 232.10,347.34 227.63,344.59 224.98,340.06 224.15,333.76"/>
        <lane id=":Node7_0_2" index="2" speed="8.96" length="18.05" shape="238.42,345.12 233.53,344.36 230.06,342.22 228.00,338.70 227.35,333.80"/>
    </edge>
    <edge id=":Node7_3" function="internal">
        <lane id=":Node7_3_0" index="0" speed="3.90" length="2.58" shape="236.95,333.90 237.05,334.60 237.34,335.10 237.84,335.41 238.53,335.52"/>
        <lane id=":Node7_3_1" index="1" speed="6.08" length="7.73" shape="233.75,333.87 234.03,335.97 234.91,337.47 236.40,338.39 238.49,338.72"/>
        <lane id=":Node7_3_2" index="2" speed="7.66" length="12.89" shape="230.55,333.83 231.02,337.33 232.49,339.85 234.97,341.37 238.46,341.92"/>
    </edge>

    <edge id="-E0" from="J0" to="Node7" priority="-1">
        <lane id="-E0_0" index="0" speed="13.89" length="248.26" shape="486.58,354.53 238.34,351.52"/>
        <lane id="-E0_1" index="1" speed="13.89" length="248.26" shape="486.62,351.33 238.38,348.32"/>
        <lane id="-E0_2" index="2" speed="13.89" length="248.26" shape="486.66,348.13 238.42,345.12"/>
    </edge>
    <edge id="-E1" from="Node3" to="J0" priority="-1">
        <lane id="-E1_0" index="0" speed="13.89" length="151.38" shape="509.71,186.27 504.39,337.55"/>
        <lane id="-E1_1" index="1" speed="13.89" length="151.38" shape="506.51,186.16 501.19,337.44"/>
        <lane id="-E1_2" index="2" speed="13.89" length="151.38" shape="503.32,186.05 497.99,337.33"/>
    </edge>
    <edge id="-E10" from="Node5" to="Node6" priority="-1">
        <lane id="-E10_0" index="0" speed="13.89" length="248.94" shape="254.61,-45.20 503.50,-40.14"/>
        <lane id="-E10_1" index="1" speed="13.89" length="248.94" shape="254.55,-42.00 503.44,-36.94"/>
        <lane id="-E10_2" index="2" speed="13.89" length="248.94" shape="254.48,-38.80 503.37,-33.74"/>
    </edge>
    <edge id="-E11" from="Node4" to="Node5" priority="-1">
        <lane id="-E11_0" index="0" speed="13.89" length="259.61" shape="-32.35,-48.44 227.24,-45.62"/>
        <lane id="-E11_1" index="1" speed="13.89" length="259.61" shape="-32.39,-45.24 227.20,-42.42"/>
        <lane id="-E11_2" index="2" speed="13.89" length="259.61" shape="-32.42,-42.04 227.17,-39.22"/>
    </edge>
    <edge id="-E12" from="Node1" to="Node4" priority="-1">
        <lane id="-E12_0" index="0" speed="13.89" length="192.11" shape="-51.83,161.11 -50.14,-30.99"/>
        <lane id="-E12_1" index="1" speed="13.89" length="192.11" shape="-48.63,161.14 -46.94,-30.96"/>
        <lane id="-E12_2" index="2" speed="13.89" length="192.11" shape="-45.43,161.17 -43.74,-30.93"/>
    </edge>
    <edge id="-E9" from="Node6" to="Node3" priority="-1">
        <lane id="-E9_0" index="0" speed="13.89" length="181.27" shape="520.72,-21.59 510.91,159.41"/>
        <lane id="-E9_1" index="1" speed="13.89" length="181.27" shape="517.53,-21.76 507.71,159.24"/>
        <lane id="-E9_2" index="2" speed="13.89" length="181.27" shape="514.33,-21.94 504.51,159.06"/>
    </edge>
    <edge id="E0" from="Node7" to="J0" priority="-1">
        <lane id="E0_0" index="0" speed="13.89" length="248.26" shape="238.53,335.52 486.78,338.53"/>
        <lane id="E0_1" index="1" speed="13.89" length="248.26" shape="238.49,338.72 486.74,341.73"/>
        <lane id="E0_2" index="2" speed="13.89" length="248.26" shape="238.46,341.92 486.70,344.93"/>
    </edge>
    <edge id="E1" from="J0" to="Node3" priority="-1">
        <lane id="E1_0" index="0" speed="13.89" length="151.38" shape="488.40,336.99 493.72,185.71"/>
        <lane id="E1_1" index="1" speed="13.89" length="151.38" shape="491.59,337.10 496.92,185.82"/>
        <lane id="E1_2" index="2" speed="13.89" length="151.38" shape="494.79,337.22 500.12,185.93"/>
    </edge>
    <edge id="E10" from="Node6" to="Node5" priority="-1">
        <lane id="E10_0" index="0" speed="13.89" length="248.94" shape="503.18,-24.14 254.29,-29.20"/>
        <lane id="E10_1" index="1" speed="13.89" length="248.94" shape="503.24,-27.34 254.35,-32.40"/>
        <lane id="E10_2" index="2" speed="13.89" length="248.94" shape="503.31,-30.54 254.42,-35.60"/>
    </edge>
    <edge id="E11" from="Node5" to="Node4" priority="-1">
        <lane id="E11_0" index="0" speed="13.89" length="259.61" shape="227.07,-29.62 -32.53,-32.44"/>
        <lane id="E11_1" index="1" speed="13.89" length="259.61" shape="227.10,-32.82 -32.49,-35.64"/>
        <lane id="E11_2" index="2" speed="13.89" length="259.61" shape="227.13,-36.02 -32.46,-38.84"/>
    </edge>
    <edge id="E12" from="Node4" to="Node1" priority="-1">
        <lane id="E12_0" index="0" speed="13.89" length="192.11" shape="-34.14,-30.85 -35.83,161.25"/>
        <lane id="E12_1" index="1" speed="13.89" length="192.11" shape="-37.34,-30.88 -39.03,161.22"/>
        <lane id="E12_2" index="2" speed="13.89" length="192.11" shape="-40.54,-30.91 -42.23,161.20"/>
    </edge>
    <edge id="E9" from="Node3" to="Node6" priority="-1">
        <lane id="E9_0" index="0" speed="13.89" length="181.27" shape="494.93,158.54 504.74,-22.46"/>
        <lane id="E9_1" index="1" speed="13.89" length="181.27" shape="498.12,158.72 507.94,-22.28"/>
        <lane id="E9_2" index="2" speed="13.89" length="181.27" shape="501.32,158.89 511.13,-22.11"/>
    </edge>
    <edge id="Node1_2_EB" from="Node1" to="Node2" priority="-1">
        <lane id="Node1_2_EB_0" index="0" speed="13.89" length="251.40" shape="-34.24,162.87 217.14,165.12"/>
        <lane id="Node1_2_EB_1" index="1" speed="13.89" length="251.40" shape="-34.27,166.07 217.12,168.32"/>
        <lane id="Node1_2_EB_2" index="2" speed="13.89" length="251.40" shape="-34.30,169.27 217.09,171.52"/>
    </edge>
    <edge id="Node1_2_WB" from="Node2" to="Node1" priority="-1">
        <lane id="Node1_2_WB_0" index="0" speed="13.89" length="251.40" shape="217.00,181.12 -34.38,178.87"/>
        <lane id="Node1_2_WB_1" index="1" speed="13.89" length="251.40" shape="217.03,177.92 -34.36,175.67"/>
        <lane id="Node1_2_WB_2" index="2" speed="13.89" length="251.40" shape="217.06,174.72 -34.33,172.47"/>
    </edge>
    <edge id="Node2_3_EB" from="Node2" to="Node3" priority="-1">
        <lane id="Node2_3_EB_0" index="0" speed="13.89" length="243.40" shape="244.79,165.18 488.18,164.07"/>
        <lane id="Node2_3_EB_1" index="1" speed="13.89" length="243.40" shape="244.80,168.38 488.20,167.27"/>
        <lane id="Node2_3_EB_2" index="2" speed="13.89" length="243.40" shape="244.82,171.58 488.21,170.47"/>
    </edge>
    <edge id="Node2_3_WB" from="Node3" to="Node2" priority="-1">
        <lane id="Node2_3_WB_0" index="0" speed="13.89" length="243.40" shape="488.26,180.07 244.86,181.18"/>
        <lane id="Node2_3_WB_1" index="1" speed="13.89" length="243.40" shape="488.24,176.87 244.84,177.98"/>
        <lane id="Node2_3_WB_2" index="2" speed="13.89" length="243.40" shape="488.23,173.67 244.83,174.78"/>
    </edge>
    <edge id="Node2_5_NB" from="Node5" to="Node2" priority="-1">
        <lane id="Node2_5_NB_0" index="0" speed="13.89" length="182.86" shape="248.43,-23.11 239.38,159.52"/>
        <lane id="Node2_5_NB_1" index="1" speed="13.89" length="182.86" shape="245.23,-23.27 236.18,159.36"/>
        <lane id="Node2_5_NB_2" index="2" speed="13.89" length="182.86" shape="242.04,-23.43 232.99,159.20"/>
    </edge>
    <edge id="Node2_5_SB" from="Node2" to="Node5" priority="-1">
        <lane id="Node2_5_SB_0" index="0" speed="13.89" length="182.86" shape="223.40,158.73 232.45,-23.90"/>
        <lane id="Node2_5_SB_1" index="1" speed="13.89" length="182.86" shape="226.60,158.89 235.64,-23.75"/>
        <lane id="Node2_5_SB_2" index="2" speed="13.89" length="182.86" shape="229.79,159.04 238.84,-23.59"/>
    </edge>
    <edge id="Node2_7_NB" from="Node2" to="Node7" priority="-1">
        <lane id="Node2_7_NB_0" index="0" speed="13.89" length="146.96" shape="238.54,186.94 236.95,333.90"/>
        <lane id="Node2_7_NB_1" index="1" speed="13.89" length="146.96" shape="235.34,186.91 233.75,333.87"/>
        <lane id="Node2_7_NB_2" index="2" speed="13.89" length="146.96" shape="232.14,186.87 230.55,333.83"/>
    </edge>
    <edge id="Node2_7_SB" from="Node7" to="Node2" priority="-1">
        <lane id="Node2_7_SB_0" index="0" speed="13.89" length="146.96" shape="220.95,333.73 222.54,186.77"/>
        <lane id="Node2_7_SB_1" index="1" speed="13.89" length="146.96" shape="224.15,333.76 225.74,186.81"/>
        <lane id="Node2_7_SB_2" index="2" speed="13.89" length="146.96" shape="227.35,333.80 228.94,186.84"/>
    </edge>

   <tlLogic id="Node2" type="static" programID="0" offset="0">
    <phase duration="21" state="rrrrrrrrrrGGGGGrrrrr"/>
    <phase duration="2"  state="rrrrrrrrrryyyyyrrrrr"/>
    <phase duration="21" state="rrrrrrrrrrrrrrrGGGGG"/>
    <phase duration="2"  state="rrrrrrrrrrrrrrryyyyy"/>
    <phase duration="21" state="GGGGGrrrrrrrrrrrrrrr"/>
    <phase duration="2"  state="yyyyyrrrrrrrrrrrrrrr"/>
    <phase duration="21" state="rrrrrGGGGGrrrrrrrrrr"/>
    <phase duration="2"  state="rrrrryyyyyrrrrrrrrrr"/>
</tlLogic>


    <junction id="J0" type="priority" x="496.06" y="346.65" incLanes="-E1_0 -E1_1 -E1_2 E0_0 E0_1 E0_2" intLanes=":J0_0_0 :J0_0_1 :J0_0_2 :J0_3_0 :J0_3_1 :J0_3_2" shape="505.99,337.61 486.80,336.93 486.56,356.13 492.31,355.68 497.06,354.18 500.80,351.62 503.53,348.00 505.26,343.33">
        <request index="0" response="000000" foes="000000" cont="0"/>
        <request index="1" response="000000" foes="000000" cont="0"/>
        <request index="2" response="000000" foes="000000" cont="0"/>
        <request index="3" response="000000" foes="000000" cont="0"/>
        <request index="4" response="000000" foes="000000" cont="0"/>
        <request index="5" response="000000" foes="000000" cont="0"/>
    </junction>
    <junction id="Node1" type="priority" x="-43.91" y="170.78" incLanes="Node1_2_WB_0 Node1_2_WB_1 Node1_2_WB_2 E12_0 E12_1 E12_2" intLanes=":Node1_0_0 :Node1_0_1 :Node1_0_2 :Node1_3_0 :Node1_3_1 :Node1_3_2" shape="-34.40,180.47 -34.23,161.27 -53.43,161.10 -52.94,166.97 -51.39,171.78 -48.75,175.54 -45.04,178.24 -40.26,179.88">
        <request index="0" response="000000" foes="000000" cont="0"/>
        <request index="1" response="000000" foes="000000" cont="0"/>
        <request index="2" response="000000" foes="000000" cont="0"/>
        <request index="3" response="000000" foes="000000" cont="0"/>
        <request index="4" response="000000" foes="000000" cont="0"/>
        <request index="5" response="000000" foes="000000" cont="0"/>
    </junction>
    <junction id="Node2" type="traffic_light" x="230.69" y="173.24" incLanes="Node2_3_WB_0 Node2_3_WB_1 Node2_3_WB_2 Node2_5_NB_0 Node2_5_NB_1 Node2_5_NB_2 Node1_2_EB_0 Node1_2_EB_1 Node1_2_EB_2 Node2_7_SB_0 Node2_7_SB_1 Node2_7_SB_2" intLanes=":Node2_0_0 :Node2_1_0 :Node2_1_1 :Node2_1_2 :Node2_4_0 :Node2_5_0 :Node2_6_0 :Node2_6_1 :Node2_6_2 :Node2_9_0 :Node2_10_0 :Node2_11_0 :Node2_11_1 :Node2_11_2 :Node2_14_0 :Node2_15_0 :Node2_16_0 :Node2_16_1 :Node2_16_2 :Node2_19_0" shape="244.87,182.78 244.78,163.58 242.58,163.14 241.83,162.59 241.31,161.82 241.03,160.82 240.98,159.60 221.80,158.65 221.18,161.37 220.52,162.32 219.63,162.99 218.51,163.39 217.16,163.52 216.99,182.72 219.20,183.18 219.98,183.74 220.52,184.53 220.85,185.53 220.94,186.75 240.14,186.96 240.69,184.65 241.35,183.83 242.26,183.25 243.44,182.90">
        <request index="0"  response="00000000000000000000" foes="00000000000111000000" cont="0"/>
        <request index="1"  response="00000000000000000000" foes="11111100001111000000" cont="0"/>
        <request index="2"  response="00000000000000000000" foes="11111100001111000000" cont="0"/>
        <request index="3"  response="00000000000000000000" foes="11111100001111000000" cont="0"/>
        <request index="4"  response="00000011100000000000" foes="11110011101111000000" cont="0"/>
        <request index="5"  response="00000011100000000000" foes="00000011100000000000" cont="0"/>
        <request index="6"  response="00000111100000011111" foes="10000111100000011111" cont="0"/>
        <request index="7"  response="00000111100000011111" foes="10000111100000011111" cont="0"/>
        <request index="8"  response="00000111100000011111" foes="10000111100000011111" cont="0"/>
        <request index="9"  response="01110111100000011110" foes="01110111100000011110" cont="0"/>
        <request index="10" response="00000000000000000000" foes="01110000000000000000" cont="0"/>
        <request index="11" response="00000000000000000000" foes="11110000001111110000" cont="0"/>
        <request index="12" response="00000000000000000000" foes="11110000001111110000" cont="0"/>
        <request index="13" response="00000000000000000000" foes="11110000001111110000" cont="0"/>
        <request index="14" response="00000000000000001110" foes="11110000001111001110" cont="0"/>
        <request index="15" response="00000000000000001110" foes="00000000000000001110" cont="0"/>
        <request index="16" response="00000111110000011110" foes="00000111111000011110" cont="0"/>
        <request index="17" response="00000111110000011110" foes="00000111111000011110" cont="0"/>
        <request index="18" response="00000111110000011110" foes="00000111111000011110" cont="0"/>
        <request index="19" response="00000111100111011110" foes="00000111100111011110" cont="0"/>
    </junction>
    <junction id="Node3" type="priority" x="502.21" y="172.01" incLanes="-E9_0 -E9_1 -E9_2 Node2_3_EB_0 Node2_3_EB_1 Node2_3_EB_2 E1_0 E1_1 E1_2" intLanes=":Node3_0_0 :Node3_0_1 :Node3_0_2 :Node3_12_0 :Node3_12_1 :Node3_5_0 :Node3_6_0 :Node3_6_1 :Node3_8_0 :Node3_9_0 :Node3_9_1 :Node3_9_2" shape="512.50,159.50 493.33,158.46 492.66,160.68 491.93,161.46 490.94,162.02 489.69,162.36 488.18,162.47 488.26,181.67 490.47,182.11 491.23,182.66 491.76,183.43 492.06,184.43 492.12,185.65 511.31,186.33">
        <request index="0"  response="000000000000" foes="000011000000" cont="0"/>
        <request index="1"  response="000000000000" foes="000011000000" cont="0"/>
        <request index="2"  response="000000000000" foes="000011000000" cont="0"/>
        <request index="3"  response="111000000000" foes="111011000000" cont="1"/>
        <request index="4"  response="111000000000" foes="111011000000" cont="1"/>
        <request index="5"  response="111000000000" foes="111000000000" cont="0"/>
        <request index="6"  response="111000011111" foes="111000011111" cont="0"/>
        <request index="7"  response="111000011111" foes="111000011111" cont="0"/>
        <request index="8"  response="000000000000" foes="000000000000" cont="0"/>
        <request index="9"  response="000000000000" foes="000011111000" cont="0"/>
        <request index="10" response="000000000000" foes="000011111000" cont="0"/>
        <request index="11" response="000000000000" foes="000011111000" cont="0"/>
    </junction>
    <junction id="Node4" type="priority" x="-42.06" y="-40.54" incLanes="E11_0 E11_1 E11_2 -E12_0 -E12_1 -E12_2" intLanes=":Node4_0_0 :Node4_0_1 :Node4_0_2 :Node4_3_0 :Node4_3_1 :Node4_3_2" shape="-32.54,-30.84 -32.34,-50.04 -38.22,-49.56 -43.04,-48.01 -46.81,-45.38 -49.51,-41.67 -51.16,-36.88 -51.74,-31.00">
        <request index="0" response="000000" foes="000000" cont="0"/>
        <request index="1" response="000000" foes="000000" cont="0"/>
        <request index="2" response="000000" foes="000000" cont="0"/>
        <request index="3" response="000000" foes="000000" cont="0"/>
        <request index="4" response="000000" foes="000000" cont="0"/>
        <request index="5" response="000000" foes="000000" cont="0"/>
    </junction>
    <junction id="Node5" type="priority" x="241.13" y="-37.47" incLanes="E10_0 E10_1 E10_2 -E11_0 -E11_1 -E11_2 Node2_5_SB_0 Node2_5_SB_1 Node2_5_SB_2" intLanes=":Node5_0_0 :Node5_1_0 :Node5_1_1 :Node5_1_2 :Node5_4_0 :Node5_4_1 :Node5_4_2 :Node5_12_0 :Node5_12_1 :Node5_9_0 :Node5_10_0 :Node5_10_1" shape="254.26,-27.60 254.65,-46.80 227.26,-47.22 227.05,-28.02 229.25,-27.55 230.00,-26.99 230.52,-26.21 230.80,-25.21 230.85,-23.98 250.03,-23.03 250.60,-25.61 251.20,-26.50 252.01,-27.13 253.03,-27.50">
        <request index="0"  response="000000000000" foes="000000000000" cont="0"/>
        <request index="1"  response="000000000000" foes="111110000000" cont="0"/>
        <request index="2"  response="000000000000" foes="111110000000" cont="0"/>
        <request index="3"  response="000000000000" foes="111110000000" cont="0"/>
        <request index="4"  response="000000000000" foes="110000000000" cont="0"/>
        <request index="5"  response="000000000000" foes="110000000000" cont="0"/>
        <request index="6"  response="000000000000" foes="110000000000" cont="0"/>
        <request index="7"  response="000000001110" foes="110000001110" cont="1"/>