<?xml version="1.0" encoding="UTF-8"?>

<!-- generated on 2025-08-21 22:07:04 by Eclipse SUMO netedit Version 1.23.1
-->

<routes xmlns:xsi="http://www.w3.org/2001/XMLSchema-instance" xsi:noNamespaceSchemaLocation="http://sumo.dlr.de/xsd/routes_file.xsd">
    <!-- Vehicles, persons and containers (sorted by depart) -->
    <flow id="f_0" begin="0.00" from="Node2_7_SB" to="Node2_3_EB" via="Node1_2_WB -E12 Node2_5_NB" end="3600.00" vehsPerHour="900" departLane="random"/>
    <flow id="f_1" begin="0.00" from="Node2_5_NB" to="Node2_7_NB" end="3600.00" vehsPerHour="300"/>
    <flow id="f_2" begin="0.00" from="Node1_2_EB" to="E9" via="Node2_3_EB" end="3600.00" vehsPerHour="1000"/>
    <flow id="f_3" begin="0.00" from="Node2_3_WB" to="-E12" via="Node1_2_WB" end="1500.00" vehsPerHour="1000"/>
</routes>
