<?xml version="1.0" encoding="UTF-8"?>

<!-- generated on 2025-10-10 09:39:06 by Eclipse SUMO netedit Version 1.24.0
<neteditConfiguration xmlns:xsi="http://www.w3.org/2001/XMLSchema-instance" xsi:noNamespaceSchemaLocation="http://sumo.dlr.de/xsd/neteditConfiguration.xsd">

    <input>
        <sumocfg-file value="C:\Users\STUDENT\Traffiq\envs\final_single.sumocfg"/>
        <sumo-net-file value="C:\Users\STUDENT\Traffiq\envs\final_single.net.xml"/>
    </input>

    <output>
        <output-file value="C:\Users\STUDENT\Traffiq\envs\final_single.net.xml"/>
    </output>

    <processing>
        <offset.disable-normalization value="true"/>
    </processing>

    <junctions>
        <no-turnarounds value="true"/>
    </junctions>

    <netedit>
        <new-network value="false"/>
    </netedit>

</neteditConfiguration>
-->

<net version="1.20" junctionCornerDetail="5" limitTurnSpeed="5.50" xmlns:xsi="http://www.w3.org/2001/XMLSchema-instance" xsi:noNamespaceSchemaLocation="http://sumo.dlr.de/xsd/net_file.xsd">

    <location netOffset="0.00,0.00" convBoundary="-100.00,-100.00,300.00,300.00" origBoundary="10000000000.00,10000000000.00,-10000000000.00,-10000000000.00" projParameter="!"/>

    <edge id=":J0_0" function="internal">
        <lane id=":J0_0_0" index="0" speed="13.89" length="27.20" shape="-108.00,113.60 -108.00,86.40"/>
        <lane id=":J0_0_1" index="1" speed="13.89" length="27.20" shape="-104.80,113.60 -104.80,86.40"/>
        <lane id=":J0_0_2" index="2" speed="13.89" length="27.20" shape="-101.60,113.60 -101.60,86.40"/>
    </edge>
    <edge id=":J0_3" function="internal">
        <lane id=":J0_3_0" index="0" speed="10.88" length="6.03" shape="-101.60,113.60 -100.89,107.62"/>
        <lane id=":J0_3_1" index="1" speed="10.36" length="5.01" shape="-101.60,113.60 -100.89,108.64"/>
    </edge>
    <edge id=":J0_12" function="internal">
        <lane id=":J0_12_0" index="0" speed="10.88" length="21.12" shape="-100.89,107.62 -100.65,105.55 -97.80,99.80 -93.05,96.35 -86.40,95.20"/>
        <lane id=":J0_12_1" index="0" speed="10.36" length="19.50" shape="-100.89,108.64 -100.65,106.95 -97.80,102.20 -93.05,99.35 -86.40,98.40"/>
    </edge>
    <edge id=":J0_5" function="internal">
        <lane id=":J0_5_0" index="0" speed="6.51" length="9.03" shape="-86.40,108.00 -88.85,108.35 -90.60,109.40 -91.65,111.15 -92.00,113.60"/>
    </edge>
    <edge id=":J0_6" function="internal">
        <lane id=":J0_6_0" index="0" speed="11.36" length="29.67" shape="-86.40,104.80 -94.45,103.65 -100.20,100.20 -103.65,94.45 -104.80,86.40"/>
        <lane id=":J0_6_1" index="1" speed="10.36" length="24.51" shape="-86.40,101.60 -93.05,100.65 -97.80,97.80 -100.65,93.05 -101.60,86.40"/>
    </edge>
    <edge id=":J0_8" function="internal">
        <lane id=":J0_8_0" index="0" speed="6.51" length="9.03" shape="-92.00,86.40 -91.65,88.85 -90.60,90.60 -88.85,91.65 -86.40,92.00"/>
    </edge>
    <edge id=":J0_9" function="internal">
        <lane id=":J0_9_0" index="0" speed="13.89" length="27.20" shape="-92.00,86.40 -92.00,113.60"/>
        <lane id=":J0_9_1" index="1" speed="13.89" length="27.20" shape="-95.20,86.40 -95.20,113.60"/>
        <lane id=":J0_9_2" index="2" speed="13.89" length="27.20" shape="-98.40,86.40 -98.40,113.60"/>
    </edge>
    <edge id=":J1_0" function="internal">
        <lane id=":J1_0_0" index="0" speed="6.51" length="9.03" shape="92.00,113.60 91.65,111.15 90.60,109.40 88.85,108.35 86.40,108.00"/>
    </edge>
    <edge id=":J1_1" function="internal">
        <lane id=":J1_1_0" index="0" speed="13.89" length="27.20" shape="92.00,113.60 92.00,86.40"/>
        <lane id=":J1_1_1" index="1" speed="13.89" length="27.20" shape="95.20,113.60 95.20,86.40"/>
        <lane id=":J1_1_2" index="2" speed="13.89" length="27.20" shape="98.40,113.60 98.40,86.40"/>
    </edge>
    <edge id=":J1_4" function="internal">
        <lane id=":J1_4_0" index="0" speed="10.36" length="5.01" shape="98.40,113.60 99.11,108.64"/>
    </edge>
    <edge id=":J1_20" function="internal">
        <lane id=":J1_20_0" index="0" speed="10.36" length="19.50" shape="99.11,108.64 99.35,106.95 102.20,102.20 106.95,99.35 113.60,98.40"/>
    </edge>
    <edge id=":J1_5" function="internal">
        <lane id=":J1_5_0" index="0" speed="6.51" length="9.03" shape="113.60,108.00 111.15,108.35 109.40,109.40 108.35,111.15 108.00,113.60"/>
    </edge>
    <edge id=":J1_6" function="internal">
        <lane id=":J1_6_0" index="0" speed="13.89" length="27.20" shape="113.60,108.00 86.40,108.00"/>
        <lane id=":J1_6_1" index="1" speed="13.89" length="27.20" shape="113.60,104.80 86.40,104.80"/>
        <lane id=":J1_6_2" index="2" speed="13.89" length="27.20" shape="113.60,101.60 86.40,101.60"/>
    </edge>
    <edge id=":J1_9" function="internal">
        <lane id=":J1_9_0" index="0" speed="10.36" length="5.01" shape="113.60,101.60 108.64,100.89"/>
    </edge>
    <edge id=":J1_21" function="internal">
        <lane id=":J1_21_0" index="0" speed="10.36" length="19.50" shape="108.64,100.89 106.95,100.65 102.20,97.80 99.35,93.05 98.40,86.40"/>
    </edge>
    <edge id=":J1_10" function="internal">
        <lane id=":J1_10_0" index="0" speed="6.51" length="9.03" shape="108.00,86.40 108.35,88.85 109.40,90.60 111.15,91.65 113.60,92.00"/>
    </edge>
    <edge id=":J1_11" function="internal">
        <lane id=":J1_11_0" index="0" speed="13.89" length="27.20" shape="108.00,86.40 108.00,113.60"/>
        <lane id=":J1_11_1" index="1" speed="13.89" length="27.20" shape="104.80,86.40 104.80,113.60"/>
        <lane id=":J1_11_2" index="2" speed="13.89" length="27.20" shape="101.60,86.40 101.60,113.60"/>
    </edge>
    <edge id=":J1_14" function="internal">
        <lane id=":J1_14_0" index="0" speed="10.36" length="5.01" shape="101.60,86.40 100.89,91.36"/>
    </edge>
    <edge id=":J1_22" function="internal">
        <lane id=":J1_22_0" index="0" speed="10.36" length="19.50" shape="100.89,91.36 100.65,93.05 97.80,97.80 93.05,100.65 86.40,101.60"/>
    </edge>
    <edge id=":J1_15" function="internal">
        <lane id=":J1_15_0" index="0" speed="6.51" length="9.03" shape="86.40,92.00 88.85,91.65 90.60,90.60 91.65,88.85 92.00,86.40"/>
    </edge>
    <edge id=":J1_16" function="internal">
        <lane id=":J1_16_0" index="0" speed="13.89" length="27.20" shape="86.40,92.00 113.60,92.00"/>
        <lane id=":J1_16_1" index="1" speed="13.89" length="27.20" shape="86.40,95.20 113.60,95.20"/>
        <lane id=":J1_16_2" index="2" speed="13.89" length="27.20" shape="86.40,98.40 113.60,98.40"/>
    </edge>
    <edge id=":J1_19" function="internal">
        <lane id=":J1_19_0" index="0" speed="10.36" length="5.01" shape="86.40,98.40 91.36,99.11"/>
    </edge>
    <edge id=":J1_23" function="internal">
        <lane id=":J1_23_0" index="0" speed="10.36" length="19.50" shape="91.36,99.11 93.05,99.35 97.80,102.20 100.65,106.95 101.60,113.60"/>
    </edge>
    <edge id=":J2_0" function="internal">
        <lane id=":J2_0_0" index="0" speed="6.51" length="9.03" shape="92.00,-86.40 91.65,-88.85 90.60,-90.60 88.85,-91.65 86.40,-92.00"/>
    </edge>
    <edge id=":J2_1" function="internal">
        <lane id=":J2_1_0" index="0" speed="11.36" length="29.67" shape="95.20,-86.40 96.35,-94.45 99.80,-100.20 105.55,-103.65 113.60,-104.80"/>
        <lane id=":J2_1_1" index="1" speed="10.36" length="24.51" shape="98.40,-86.40 99.35,-93.05 102.20,-97.80 106.95,-100.65 113.60,-101.60"/>
    </edge>
    <edge id=":J2_3" function="internal">
        <lane id=":J2_3_0" index="0" speed="6.51" length="9.03" shape="113.60,-92.00 111.15,-91.65 109.40,-90.60 108.35,-88.85 108.00,-86.40"/>
    </edge>
    <edge id=":J2_4" function="internal">
        <lane id=":J2_4_0" index="0" speed="13.89" length="27.20" shape="113.60,-92.00 86.40,-92.00"/>
        <lane id=":J2_4_1" index="1" speed="13.89" length="27.20" shape="113.60,-95.20 86.40,-95.20"/>
        <lane id=":J2_4_2" index="2" speed="13.89" length="27.20" shape="113.60,-98.40 86.40,-98.40"/>
    </edge>
    <edge id=":J2_7" function="internal">
        <lane id=":J2_7_0" index="0" speed="13.89" length="27.20" shape="86.40,-108.00 113.60,-108.00"/>
        <lane id=":J2_7_1" index="1" speed="13.89" length="27.20" shape="86.40,-104.80 113.60,-104.80"/>
        <lane id=":J2_7_2" index="2" speed="13.89" length="27.20" shape="86.40,-101.60 113.60,-101.60"/>
    </edge>
    <edge id=":J2_10" function="internal">
        <lane id=":J2_10_0" index="0" speed="10.88" length="6.03" shape="86.40,-101.60 92.38,-100.89"/>
        <lane id=":J2_10_1" index="1" speed="10.36" length="5.01" shape="86.40,-101.60 91.36,-100.89"/>
    </edge>
    <edge id=":J2_12" function="internal">
        <lane id=":J2_12_0" index="0" speed="10.88" length="21.12" shape="92.38,-100.89 94.45,-100.65 100.20,-97.80 103.65,-93.05 104.80,-86.40"/>
        <lane id=":J2_12_1" index="0" speed="10.36" length="19.50" shape="91.36,-100.89 93.05,-100.65 97.80,-97.80 100.65,-93.05 101.60,-86.40"/>
    </edge>
    <edge id=":J3_0" function="internal">
        <lane id=":J3_0_0" index="0" speed="6.51" length="9.03" shape="292.00,113.60 291.65,111.15 290.60,109.40 288.85,108.35 286.40,108.00"/>
    </edge>
    <edge id=":J3_1" function="internal">
        <lane id=":J3_1_0" index="0" speed="13.89" length="27.20" shape="292.00,113.60 292.00,86.40"/>
        <lane id=":J3_1_1" index="1" speed="13.89" length="27.20" shape="295.20,113.60 295.20,86.40"/>
        <lane id=":J3_1_2" index="2" speed="13.89" length="27.20" shape="298.40,113.60 298.40,86.40"/>
    </edge>
    <edge id=":J3_4" function="internal">
        <lane id=":J3_4_0" index="0" speed="13.89" length="27.20" shape="308.00,86.40 308.00,113.60"/>
        <lane id=":J3_4_1" index="1" speed="13.89" length="27.20" shape="304.80,86.40 304.80,113.60"/>
        <lane id=":J3_4_2" index="2" speed="13.89" length="27.20" shape="301.60,86.40 301.60,113.60"/>
    </edge>
    <edge id=":J3_7" function="internal">
        <lane id=":J3_7_0" index="0" speed="10.88" length="6.03" shape="301.60,86.40 300.89,92.38"/>
        <lane id=":J3_7_1" index="1" speed="10.36" length="5.01" shape="301.60,86.40 300.89,91.36"/>
    </edge>
    <edge id=":J3_12" function="internal">
        <lane id=":J3_12_0" index="0" speed="10.88" length="21.12" shape="300.89,92.38 300.65,94.45 297.80,100.20 293.05,103.65 286.40,104.80"/>
        <lane id=":J3_12_1" index="0" speed="10.36" length="19.50" shape="300.89,91.36 300.65,93.05 297.80,97.80 293.05,100.65 286.40,101.60"/>
    </edge>
    <edge id=":J3_9" function="internal">
        <lane id=":J3_9_0" index="0" speed="6.51" length="9.03" shape="286.40,92.00 288.85,91.65 290.60,90.60 291.65,88.85 292.00,86.40"/>
    </edge>
    <edge id=":J3_10" function="internal">
        <lane id=":J3_10_0" index="0" speed="11.36" length="29.67" shape="286.40,95.20 294.45,96.35 300.20,99.80 303.65,105.55 304.80,113.60"/>
        <lane id=":J3_10_1" index="1" speed="10.36" length="24.51" shape="286.40,98.40 293.05,99.35 297.80,102.20 300.65,106.95 301.60,113.60"/>
    </edge>
    <edge id=":J4_0" function="internal">
        <lane id=":J4_0_0" index="0" speed="13.89" length="27.20" shape="113.60,308.00 86.40,308.00"/>
        <lane id=":J4_0_1" index="1" speed="13.89" length="27.20" shape="113.60,304.80 86.40,304.80"/>
        <lane id=":J4_0_2" index="2" speed="13.89" length="27.20" shape="113.60,301.60 86.40,301.60"/>
    </edge>
    <edge id=":J4_3" function="internal">
        <lane id=":J4_3_0" index="0" speed="10.88" length="6.03" shape="113.60,301.60 107.62,300.89"/>
        <lane id=":J4_3_1" index="1" speed="10.36" length="5.01" shape="113.60,301.60 108.64,300.89"/>
    </edge>
    <edge id=":J4_12" function="internal">
        <lane id=":J4_12_0" index="0" speed="10.88" length="21.12" shape="107.62,300.89 105.55,300.65 99.80,297.80 96.35,293.05 95.20,286.40"/>
        <lane id=":J4_12_1" index="0" speed="10.36" length="19.50" shape="108.64,300.89 106.95,300.65 102.20,297.80 99.35,293.05 98.40,286.40"/>
    </edge>
    <edge id=":J4_5" function="internal">
        <lane id=":J4_5_0" index="0" speed="6.51" length="9.03" shape="108.00,286.40 108.35,288.85 109.40,290.60 111.15,291.65 113.60,292.00"/>
    </edge>
    <edge id=":J4_6" function="internal">
        <lane id=":J4_6_0" index="0" speed="11.36" length="29.67" shape="104.80,286.40 103.65,294.45 100.20,300.20 94.45,303.65 86.40,304.80"/>
        <lane id=":J4_6_1" index="1" speed="10.36" length="24.51" shape="101.60,286.40 100.65,293.05 97.80,297.80 93.05,300.65 86.40,301.60"/>
    </edge>
    <edge id=":J4_8" function="internal">
        <lane id=":J4_8_0" index="0" speed="6.51" length="9.03" shape="86.40,292.00 88.85,291.65 90.60,290.60 91.65,288.85 92.00,286.40"/>
    </edge>
    <edge id=":J4_9" function="internal">
        <lane id=":J4_9_0" index="0" speed="13.89" length="27.20" shape="86.40,292.00 113.60,292.00"/>
        <lane id=":J4_9_1" index="1" speed="13.89" length="27.20" shape="86.40,295.20 113.60,295.20"/>
        <lane id=":J4_9_2" index="2" speed="13.89" length="27.20" shape="86.40,298.40 113.60,298.40"/>
    </edge>
    <edge id=":J5_0" function="internal">
        <lane id=":J5_0_0" index="0" speed="11.12" length="28.38" shape="-90.40,308.00 -98.10,306.90 -103.60,303.60 -106.90,298.10 -108.00,290.40"/>
        <lane id=":J5_0_1" index="1" speed="10.10" length="23.22" shape="-90.40,304.80 -96.70,303.90 -101.20,301.20 -103.90,296.70 -104.80,290.40"/>
        <lane id=":J5_0_2" index="2" speed="8.96" length="18.06" shape="-90.40,301.60 -95.30,300.90 -98.80,298.80 -100.90,295.30 -101.60,290.40"/>
    </edge>
    <edge id=":J5_3" function="internal">
        <lane id=":J5_3_0" index="0" speed="3.90" length="2.58" shape="-92.00,290.40 -91.90,291.10 -91.60,291.60 -91.10,291.90 -90.40,292.00"/>
        <lane id=":J5_3_1" index="1" speed="6.08" length="7.74" shape="-95.20,290.40 -94.90,292.50 -94.00,294.00 -92.50,294.90 -90.40,295.20"/>
        <lane id=":J5_3_2" index="2" speed="7.66" length="12.90" shape="-98.40,290.40 -97.90,293.90 -96.40,296.40 -93.90,297.90 -90.40,298.40"/>
    </edge>
    <edge id=":J6_0" function="internal">
        <lane id=":J6_0_0" index="0" speed="11.12" length="28.38" shape="-108.00,-90.40 -106.90,-98.10 -103.60,-103.60 -98.10,-106.90 -90.40,-108.00"/>
        <lane id=":J6_0_1" index="1" speed="10.10" length="23.22" shape="-104.80,-90.40 -103.90,-96.70 -101.20,-101.20 -96.70,-103.90 -90.40,-104.80"/>
        <lane id=":J6_0_2" index="2" speed="8.96" length="18.06" shape="-101.60,-90.40 -100.90,-95.30 -98.80,-98.80 -95.30,-100.90 -90.40,-101.60"/>
    </edge>
    <edge id=":J6_3" function="internal">
        <lane id=":J6_3_0" index="0" speed="3.90" length="2.58" shape="-90.40,-92.00 -91.10,-91.90 -91.60,-91.60 -91.90,-91.10 -92.00,-90.40"/>
        <lane id=":J6_3_1" index="1" speed="6.08" length="7.74" shape="-90.40,-95.20 -92.50,-94.90 -94.00,-94.00 -94.90,-92.50 -95.20,-90.40"/>
        <lane id=":J6_3_2" index="2" speed="7.66" length="12.90" shape="-90.40,-98.40 -93.90,-97.90 -96.40,-96.40 -97.90,-93.90 -98.40,-90.40"/>
    </edge>
    <edge id=":J7_0" function="internal">
        <lane id=":J7_0_0" index="0" speed="3.90" length="2.58" shape="292.00,-90.40 291.90,-91.10 291.60,-91.60 291.10,-91.90 290.40,-92.00"/>
        <lane id=":J7_0_1" index="1" speed="6.08" length="7.74" shape="295.20,-90.40 294.90,-92.50 294.00,-94.00 292.50,-94.90 290.40,-95.20"/>
        <lane id=":J7_0_2" index="2" speed="7.66" length="12.90" shape="298.40,-90.40 297.90,-93.90 296.40,-96.40 293.90,-97.90 290.40,-98.40"/>
    </edge>
    <edge id=":J7_3" function="internal">
        <lane id=":J7_3_0" index="0" speed="11.12" length="28.38" shape="290.40,-108.00 298.10,-106.90 303.60,-103.60 306.90,-98.10 308.00,-90.40"/>
        <lane id=":J7_3_1" index="1" speed="10.10" length="23.22" shape="290.40,-104.80 296.70,-103.90 301.20,-101.20 303.90,-96.70 304.80,-90.40"/>
        <lane id=":J7_3_2" index="2" speed="8.96" length="18.06" shape="290.40,-101.60 295.30,-100.90 298.80,-98.80 300.90,-95.30 301.60,-90.40"/>
    </edge>
    <edge id=":J8_0" function="internal">
        <lane id=":J8_0_0" index="0" speed="11.12" length="28.38" shape="308.00,290.40 306.90,298.10 303.60,303.60 298.10,306.90 290.40,308.00"/>
        <lane id=":J8_0_1" index="1" speed="10.10" length="23.22" shape="304.80,290.40 303.90,296.70 301.20,301.20 296.70,303.90 290.40,304.80"/>
        <lane id=":J8_0_2" index="2" speed="8.96" length="18.06" shape="301.60,290.40 300.90,295.30 298.80,298.80 295.30,300.90 290.40,301.60"/>
    </edge>
    <edge id=":J8_3" function="internal">
        <lane id=":J8_3_0" index="0" speed="3.90" length="2.58" shape="290.40,292.00 291.10,291.90 291.60,291.60 291.90,291.10 292.00,290.40"/>
        <lane id=":J8_3_1" index="1" speed="6.08" length="7.74" shape="290.40,295.20 292.50,294.90 294.00,294.00 294.90,292.50 295.20,290.40"/>
        <lane id=":J8_3_2" index="2" speed="7.66" length="12.90" shape="290.40,298.40 293.90,297.90 296.40,296.40 297.90,293.90 298.40,290.40"/>
    </edge>

    <edge id="-E0" from="J1" to="J0" priority="-1">
        <lane id="-E0_0" index="0" speed="13.89" length="172.80" shape="86.40,108.00 -86.40,108.00"/>
        <lane id="-E0_1" index="1" speed="13.89" length="172.80" shape="86.40,104.80 -86.40,104.80"/>
        <lane id="-E0_2" index="2" speed="13.89" length="172.80" shape="86.40,101.60 -86.40,101.60"/>
    </edge>
    <edge id="-E1" from="J1" to="J2" priority="-1">
        <lane id="-E1_0" index="0" speed="13.89" length="172.80" shape="92.00,86.40 92.00,-86.40"/>
        <lane id="-E1_1" index="1" speed="13.89" length="172.80" shape="95.20,86.40 95.20,-86.40"/>
        <lane id="-E1_2" index="2" speed="13.89" length="172.80" shape="98.40,86.40 98.40,-86.40"/>
    </edge>
    <edge id="-E10" from="J8" to="J3" priority="-1">
        <lane id="-E10_0" index="0" speed="13.89" length="176.80" shape="292.00,290.40 292.00,113.60"/>
        <lane id="-E10_1" index="1" speed="13.89" length="176.80" shape="295.20,290.40 295.20,113.60"/>
        <lane id="-E10_2" index="2" speed="13.89" length="176.80" shape="298.40,290.40 298.40,113.60"/>
    </edge>
    <edge id="-E11" from="J4" to="J8" priority="-1">
        <lane id="-E11_0" index="0" speed="13.89" length="176.80" shape="113.60,292.00 290.40,292.00"/>
        <lane id="-E11_1" index="1" speed="13.89" length="176.80" shape="113.60,295.20 290.40,295.20"/>
        <lane id="-E11_2" index="2" speed="13.89" length="176.80" shape="113.60,298.40 290.40,298.40"/>
    </edge>
    <edge id="-E2" from="J3" to="J1" priority="-1">
        <lane id="-E2_0" index="0" speed="13.89" length="172.80" shape="286.40,108.00 113.60,108.00"/>
        <lane id="-E2_1" index="1" speed="13.89" length="172.80" shape="286.40,104.80 113.60,104.80"/>
        <lane id="-E2_2" index="2" speed="13.89" length="172.80" shape="286.40,101.60 113.60,101.60"/>
    </edge>
    <edge id="-E3" from="J4" to="J1" priority="-1">
        <lane id="-E3_0" index="0" speed="13.89" length="172.80" shape="92.00,286.40 92.00,113.60"/>
        <lane id="-E3_1" index="1" speed="13.89" length="172.80" shape="95.20,286.40 95.20,113.60"/>
        <lane id="-E3_2" index="2" speed="13.89" length="172.80" shape="98.40,286.40 98.40,113.60"/>
    </edge>
    <edge id="-E4" from="J5" to="J4" priority="-1">
        <lane id="-E4_0" index="0" speed="13.89" length="176.80" shape="-90.40,292.00 86.40,292.00"/>
        <lane id="-E4_1" index="1" speed="13.89" length="176.80" shape="-90.40,295.20 86.40,295.20"/>
        <lane id="-E4_2" index="2" speed="13.89" length="176.80" shape="-90.40,298.40 86.40,298.40"/>
    </edge>
    <edge id="-E5" from="J0" to="J5" priority="-1">
        <lane id="-E5_0" index="0" speed="13.89" length="176.80" shape="-92.00,113.60 -92.00,290.40"/>
        <lane id="-E5_1" index="1" speed="13.89" length="176.80" shape="-95.20,113.60 -95.20,290.40"/>
        <lane id="-E5_2" index="2" speed="13.89" length="176.80" shape="-98.40,113.60 -98.40,290.40"/>
    </edge>
    <edge id="-E6" from="J6" to="J0" priority="-1">
        <lane id="-E6_0" index="0" speed="13.89" length="176.80" shape="-92.00,-90.40 -92.00,86.40"/>
        <lane id="-E6_1" index="1" speed="13.89" length="176.80" shape="-95.20,-90.40 -95.20,86.40"/>
        <lane id="-E6_2" index="2" speed="13.89" length="176.80" shape="-98.40,-90.40 -98.40,86.40"/>
    </edge>
    <edge id="-E7" from="J2" to="J6" priority="-1">
        <lane id="-E7_0" index="0" speed="13.89" length="176.80" shape="86.40,-92.00 -90.40,-92.00"/>
        <lane id="-E7_1" index="1" speed="13.89" length="176.80" shape="86.40,-95.20 -90.40,-95.20"/>
        <lane id="-E7_2" index="2" speed="13.89" length="176.80" shape="86.40,-98.40 -90.40,-98.40"/>
    </edge>
    <edge id="-E8" from="J7" to="J2" priority="-1">
        <lane id="-E8_0" index="0" speed="13.89" length="176.80" shape="290.40,-92.00 113.60,-92.00"/>
        <lane id="-E8_1" index="1" speed="13.89" length="176.80" shape="290.40,-95.20 113.60,-95.20"/>
        <lane id="-E8_2" index="2" speed="13.89" length="176.80" shape="290.40,-98.40 113.60,-98.40"/>
    </edge>
    <edge id="-E9" from="J3" to="J7" priority="-1">
        <lane id="-E9_0" index="0" speed="13.89" length="176.80" shape="292.00,86.40 292.00,-90.40"/>
        <lane id="-E9_1" index="1" speed="13.89" length="176.80" shape="295.20,86.40 295.20,-90.40"/>
        <lane id="-E9_2" index="2" speed="13.89" length="176.80" shape="298.40,86.40 298.40,-90.40"/>
    </edge>
    <edge id="E0" from="J0" to="J1" priority="-1">
        <lane id="E0_0" index="0" speed="13.89" length="172.80" shape="-86.40,92.00 86.40,92.00"/>
        <lane id="E0_1" index="1" speed="13.89" length="172.80" shape="-86.40,95.20 86.40,95.20"/>
        <lane id="E0_2" index="2" speed="13.89" length="172.80" shape="-86.40,98.40 86.40,98.40"/>
    </edge>
    <edge id="E1" from="J2" to="J1" priority="-1">
        <lane id="E1_0" index="0" speed="13.89" length="172.80" shape="108.00,-86.40 108.00,86.40"/>
        <lane id="E1_1" index="1" speed="13.89" length="172.80" shape="104.80,-86.40 104.80,86.40"/>
        <lane id="E1_2" index="2" speed="13.89" length="172.80" shape="101.60,-86.40 101.60,86.40"/>
    </edge>
    <edge id="E10" from="J3" to="J8" priority="-1">
        <lane id="E10_0" index="0" speed="13.89" length="176.80" shape="308.00,113.60 308.00,290.40"/>
        <lane id="E10_1" index="1" speed="13.89" length="176.80" shape="304.80,113.60 304.80,290.40"/>
        <lane id="E10_2" index="2" speed="13.89" length="176.80" shape="301.60,113.60 301.60,290.40"/>
    </edge>
    <edge id="E11" from="J8" to="J4" priority="-1">
        <lane id="E11_0" index="0" speed="13.89" length="176.80" shape="290.40,308.00 113.60,308.00"/>
        <lane id="E11_1" index="1" speed="13.89" length="176.80" shape="290.40,304.80 113.60,304.80"/>
        <lane id="E11_2" index="2" speed="13.89" length="176.80" shape="290.40,301.60 113.60,301.60"/>
    </edge>
    <edge id="E2" from="J1" to="J3" priority="-1">
        <lane id="E2_0" index="0" speed="13.89" length="172.80" shape="113.60,92.00 286.40,92.00"/>
        <lane id="E2_1" index="1" speed="13.89" length="172.80" shape="113.60,95.20 286.40,95.20"/>
        <lane id="E2_2" index="2" speed="13.89" length="172.80" shape="113.60,98.40 286.40,98.40"/>
    </edge>
    <edge id="E3" from="J1" to="J4" priority="-1">
        <lane id="E3_0" index="0" speed="13.89" length="172.80" shape="108.00,113.60 108.00,286.40"/>
        <lane id="E3_1" index="1" speed="13.89" length="172.80" shape="104.80,113.60 104.80,286.40"/>
        <lane id="E3_2" index="2" speed="13.89" length="172.80" shape="101.60,113.60 101.60,286.40"/>
    </edge>
    <edge id="E4" from="J4" to="J5" priority="-1">
        <lane id="E4_0" index="0" speed="13.89" length="176.80" shape="86.40,308.00 -90.40,308.00"/>
        <lane id="E4_1" index="1" speed="13.89" length="176.80" shape="86.40,304.80 -90.40,304.80"/>
        <lane id="E4_2" index="2" speed="13.89" length="176.80" shape="86.40,301.60 -90.40,301.60"/>
    </edge>
    <edge id="E5" from="J5" to="J0" priority="-1">
        <lane id="E5_0" index="0" speed="13.89" length="176.80" shape="-108.00,290.40 -108.00,113.60"/>
        <lane id="E5_1" index="1" speed="13.89" length="176.80" shape="-104.80,290.40 -104.80,113.60"/>
        <lane id="E5_2" index="2" speed="13.89" length="176.80" shape="-101.60,290.40 -101.60,113.60"/>
    </edge>
    <edge id="E6" from="J0" to="J6" priority="-1">
        <lane id="E6_0" index="0" speed="13.89" length="176.80" shape="-108.00,86.40 -108.00,-90.40"/>
        <lane id="E6_1" index="1" speed="13.89" length="176.80" shape="-104.80,86.40 -104.80,-90.40"/>
        <lane id="E6_2" index="2" speed="13.89" length="176.80" shape="-101.60,86.40 -101.60,-90.40"/>
    </edge>
    <edge id="E7" from="J6" to="J2" priority="-1">
        <lane id="E7_0" index="0" speed="13.89" length="176.80" shape="-90.40,-108.00 86.40,-108.00"/>
        <lane id="E7_1" index="1" speed="13.89" length="176.80" shape="-90.40,-104.80 86.40,-104.80"/>
        <lane id="E7_2" index="2" speed="13.89" length="176.80" shape="-90.40,-101.60 86.40,-101.60"/>
    </edge>
    <edge id="E8" from="J2" to="J7" priority="-1">
        <lane id="E8_0" index="0" speed="13.89" length="176.80" shape="113.60,-108.00 290.40,-108.00"/>
        <lane id="E8_1" index="1" speed="13.89" length="176.80" shape="113.60,-104.80 290.40,-104.80"/>
        <lane id="E8_2" index="2" speed="13.89" length="176.80" shape="113.60,-101.60 290.40,-101.60"/>
    </edge>
    <edge id="E9" from="J7" to="J3" priority="-1">
        <lane id="E9_0" index="0" speed="13.89" length="176.80" shape="308.00,-90.40 308.00,86.40"/>
        <lane id="E9_1" index="1" speed="13.89" length="176.80" shape="304.80,-90.40 304.80,86.40"/>
        <lane id="E9_2" index="2" speed="13.89" length="176.80" shape="301.60,-90.40 301.60,86.40"/>
    </edge>

    <tlLogic id="J1" type="static" programID="0" offset="0">
        <phase duration="42" state="GGGGgrrrrrGGGGgrrrrr"/>
        <phase duration="3"  state="yyyyyrrrrryyyyyrrrrr"/>
        <phase duration="42" state="rrrrrGGGGgrrrrrGGGGg"/>
        <phase duration="3"  state="rrrrryyyyyrrrrryyyyy"/>
    </tlLogic>

    <junction id="J0" type="priority" x="-100.00" y="100.00" incLanes="E5_0 E5_1 E5_2 -E0_0 -E0_1 -E0_2 -E6_0 -E6_1 -E6_2" intLanes=":J0_0_0 :J0_0_1 :J0_0_2 :J0_12_0 :J0_12_1 :J0_5_0 :J0_6_0 :J0_6_1 :J0_8_0 :J0_9_0 :J0_9_1 :J0_9_2" shape="-109.60,113.60 -90.40,113.60 -89.96,111.38 -89.40,110.60 -88.62,110.04 -87.62,109.71 -86.40,109.60 -86.40,90.40 -88.62,89.96 -89.40,89.40 -89.96,88.62 -90.29,87.62 -90.40,86.40 -109.60,86.40">
        <request index="0"  response="000000000000" foes="000011000000" cont="0"/>
        <request index="1"  response="000000000000" foes="000011000000" cont="0"/>
        <request index="2"  response="000000000000" foes="000011000000" cont="0"/>
        <request index="3"  response="111000000000" foes="111011000000" cont="1"/>
        <request index="4"  response="111000000000" foes="111011000000" cont="1"/>
        <request index="5"  response="111000000000" foes="111000000000" cont="0"/>
        <request index="6"  response="111000011111" foes="111000011111" cont="0"/>
        <request index="7"  response="111000011111" foes="111000011111" cont="0"/>
        <request index="8"  response="000000000000" foes="000000000000" cont="0"/>
        <request index="9"  response="000000000000" foes="000011111000" cont="0"/>
        <request index="10" response="000000000000" foes="000011111000" cont="0"/>
        <request index="11" response="000000000000" foes="000011111000" cont="0"/>
    </junction>
    <junction id="J1" type="traffic_light" x="100.00" y="100.00" incLanes="-E3_0 -E3_1 -E3_2 -E2_0 -E2_1 -E2_2 E1_0 E1_1 E1_2 E0_0 E0_1 E0_2" intLanes=":J1_0_0 :J1_1_0 :J1_1_1 :J1_1_2 :J1_20_0 :J1_5_0 :J1_6_0 :J1_6_1 :J1_6_2 :J1_21_0 :J1_10_0 :J1_11_0 :J1_11_1 :J1_11_2 :J1_22_0 :J1_15_0 :J1_16_0 :J1_16_1 :J1_16_2 :J1_23_0" shape="90.40,113.60 109.60,113.60 110.04,111.38 110.60,110.60 111.38,110.04 112.38,109.71 113.60,109.60 113.60,90.40 111.38,89.96 110.60,89.40 110.04,88.62 109.71,87.62 109.60,86.40 90.40,86.40 89.96,88.62 89.40,89.40 88.62,89.96 87.62,90.29 86.40,90.40 86.40,109.60 88.62,110.04 89.40,110.60 89.96,111.38 90.29,112.38">
        <request index="0"  response="00000000000000000000" foes="00000000000111000000" cont="0"/>
        <request index="1"  response="10000000001000000000" foes="11111100001111000000" cont="0"/>
        <request index="2"  response="10000000001000000000" foes="11111100001111000000" cont="0"/>
        <request index="3"  response="10000000001000000000" foes="11111100001111000000" cont="0"/>
        <request index="4"  response="10000011101000000000" foes="11110011101111000000" cont="1"/>
        <request index="5"  response="00000011100000000000" foes="00000011100000000000" cont="0"/>
        <request index="6"  response="00000111100000011111" foes="10000111100000011111" cont="0"/>
        <request index="7"  response="00000111100000011111" foes="10000111100000011111" cont="0"/>
        <request index="8"  response="00000111100000011111" foes="10000111100000011111" cont="0"/>
        <request index="9"  response="01110111100000011110" foes="01110111100000011110" cont="1"/>
        <request index="10" response="00000000000000000000" foes="01110000000000000000" cont="0"/>
        <request index="11" response="10000000001000000000" foes="11110000001111110000" cont="0"/>
        <request index="12" response="10000000001000000000" foes="11110000001111110000" cont="0"/>
        <request index="13" response="10000000001000000000" foes="11110000001111110000" cont="0"/>
        <request index="14" response="10000000001000001110" foes="11110000001111001110" cont="1"/>
        <request index="15" response="00000000000000001110" foes="00000000000000001110" cont="0"/>