<?xml version="1.0" encoding="UTF-8"?>

<!-- generated on 2025-10-10 09:39:06 by Eclipse SUMO sumo Version 1.24.0
-->

<sumoConfiguration xmlns:xsi="http://www.w3.org/2001/XMLSchema-instance" xsi:noNamespaceSchemaLocation="http://sumo.dlr.de/xsd/sumoConfiguration.xsd">

    <input>
        <net-file value="single_grid_net.xml"/>
        <route-files value="single_grid_route.xml"/>
    </input>

</sumoConfiguration>
